*SIMULATION OVERVIEW FILE

*DSSAT Cropping System Model Ver. 4.6.1.000 -release      JUL 11, 2017; 16:24:55
                                                                                
*RUN   1        : SIM                       CRGRO046 8\000008    1              
 MODEL          : CRGRO046 - Dry bean                                           
 EXPERIMENT     : 8\000008 BN PALMIRA_ANALISIS SENSIBILIDAD                     
 DATA PATH      : D:\B\0\00000                                                  
 TREATMENT  1   : SIM                       CRGRO046                            
                                                                                
                                                                                
 CROP           : Dry bean         CULTIVAR : Jatu Rong        ECOTYPE :ANDIND  
 STARTING DATE  : APR  1 1980                                                   
 PLANTING DATE  : AUTOMATIC PLANTING PLANTS/m2 : 26.6     ROW SPACING :  60.cm  
 WEATHER        : PALM   1980                                                   
 SOIL           : CCPA000030     TEXTURE : C     -   Silty Clay Loam            
 WATER BALANCE  : NOT SIMULATED ; NO H2O-STRESS                                 
 IRRIGATION     :                                                               
 NITROGEN BAL.  : NOT SIMULATED ; NO N-STRESS                                   
 N-FERTILIZER   :                                                               
 RESIDUE/MANURE :                                                               
 ENVIRONM. OPT. : DAYL=    0.00  SRAD=    0.00  TMAX=    0.00  TMIN=    0.00    
                  RAIN=    0.00  CO2 =    0.00  DEW =    0.00  WIND=    0.00    
 SIMULATION OPT : WATER   :N  NITROGEN:N  N-FIX:N  PHOSPH :N  PESTS  :N         
                  PHOTO   :L  ET      :R  INFIL:S  HYDROL :R  SOM    :G         
                  CO2 338ppm  NSWIT   :1  EVAP :S  SOIL   :2  STEMP  :D         
 MANAGEMENT OPT : PLANTING:A  IRRIG   :A  FERT :D  RESIDUE:N  HARVEST:M         
                  WEATHER :M  TILLAGE :N                                        
                                                                                
*SUMMARY OF SOIL AND GENETIC INPUT PARAMETERS                                   
                                                                                
 Dry bean   CULTIVAR :000008-Jatu Rong          ECOTYPE :ANDIND                 
 CSDVAR :12.17  PPSEN  : 0.05  EMG-FLW:25.00  FLW-FSD: 9.00  FSD-PHM : 11.00    
 WTPSD  :0.600  SDPDVR : 3.50  SDFDUR :15.00  PODDUR :10.00  XFRUIT  :  1.00    
 THRESH : 78.0  SDPRO  :0.235  SDLIP   : 0.030                                  


*SIMULATED CROP AND SOIL STATUS AT MAIN DEVELOPMENT STAGES

 RUN NO.     1     SIM                     

        CROP GROWTH     BIOMASS         LEAF   CROP N     STRESS      STRESS                                           
   DATE  AGE STAGE        kg/ha    LAI   NUM  kg/ha  %   H2O  Nitr Phos1 Phos2  RSTG                                   
 ------  --- ----------   -----  -----  ----  ---  ---  ----  ----  ----  ----  ----                                   
  1 APR    0 Start Sim        0   0.00   0.0    0  0.0  0.00  0.00  0.00  0.00     0
 15 APR    0 Sowing           0   0.00   0.0    0  0.0  0.00  0.00  0.00  0.00     0
 20 APR    5 Emergence       44   0.08   0.2    1  3.4  0.00  0.00  0.00  0.00     0
 20 APR    5 End Juven.      44   0.08   0.2    1  3.4  0.00  0.00  0.00  0.00     0
 23 APR    8 Unifoliate      49   0.09   1.1    2  3.3  0.00  0.64  0.00  0.00     0
 25 APR   10 Flower Ind      56   0.10   1.7    2  3.2  0.00  0.41  0.00  0.00     0
 16 MAY   31 First Flwr     979   2.51   7.9   31  3.2  0.00  0.01  0.00  0.00     1
 19 MAY   34 First Pod     1333   3.11   8.8   42  3.1  0.00  0.00  0.00  0.00     3
 26 MAY   41 First Seed    2345   3.74  11.0   69  3.0  0.00  0.00  0.00  0.00     5
 28 MAY   43 End Msnode    2645   3.73  11.6   78  2.9  0.00  0.00  0.00  0.00     5
  2 JUN   48 End Pod       3322   3.44  11.6   97  2.9  0.00  0.00  0.00  0.00     5
  5 JUN   51 End Leaf      3743   3.19  11.6  107  2.9  0.00  0.00  0.00  0.00     5
  8 JUN   54 Phys. Mat     4133   2.89  11.6  116  2.8  0.00  0.00  0.00  0.00     7
 17 JUN   63 Harv. Mat     3797   0.20  11.6  107  2.8  0.00  0.00  0.00  0.00     8
 17 JUN   63 Harvest       3797   0.20  11.6  107  2.8  0.00  0.00  0.00  0.00     8


*MAIN GROWTH AND DEVELOPMENT VARIABLES

@     VARIABLE                                         SIMULATED     MEASURED
      --------                                         ---------     --------
      Anthesis day (dap)                                      31          -99
      First pod day (dap)                                     34          -99
      First seed day (dap)                                    41          -99
      Physiological maturity day (dap)                        54          -99
      Yield at harvest maturity (kg [dm]/ha)                2066          -99
      Pod/Ear/Panicle weight at maturity (kg [dm]/ha)       2952          -99
      Number at maturity (no/m2)                             567          -99
      Unit wt at maturity (g [dm]/unit)                   0.3640          -99
      Number at maturity (no/unit)                          3.50          -99
      Tops weight at maturity (kg [dm]/ha)                  3797          -99
      By-product produced (stalk) at maturity (kg[dm]/ha    1730          -99
      Leaf area index, maximum                              3.75          -99
      Harvest index at maturity                            0.544          -99
      Threshing % at maturity                              69.98          -99
      Grain N at maturity (kg/ha)                             78          -99
      Tops N at maturity (kg/ha)                             107          -99
      Stem N at maturity (kg/ha)                               9          -99
      Grain N at maturity (%)                               3.77          -99
      Tops weight at anthesis (kg [dm]/ha)                   979          -99
      Tops N at anthesis (kg/ha)                              31          -99
      Leaf number per stem at maturity                     11.57          -99
      Grain oil at maturity (%)                             2.88          -99
      Canopy height (m)                                     1.01          -99
      Harvest maturity day (dap)                              63          -99
      Emergence day (dap)                                      5          -99


*ENVIRONMENTAL AND STRESS FACTORS

 |-----Development Phase------|--------------------------------------Environment--------------------------------------|-----------------Stress-----------------|
                              |---------------Average--------------|-----Cumulative-----|--------Count of days--------|          (0=Min, 1=Max Stress)         |
                         Time  Temp  Temp  Temp Solar Photop                Evapo    Pot TMIN TMIN TMAX TMAX TMAX RAIN|----Water----|---Nitrogen--|-Phosphorus-|
                         Span   Max   Min  Mean   Rad  [day]    CO2   Rain  Trans     ET   <    <    >    >    >    >   Photo         Photo         Photo
                         days    øC    øC    øC MJ/m2     hr    ppm     mm     mm     mm  0øC  2øC 30øC 32øC 34øC  0mm  synth Growth  synth Growth  synth Growth
----------------------------------------------------------------------------------------------------------------------------------------------------------------
 Emergence -First Flower   26  29.6  19.5  24.5  18.5  12.13  338.4   54.2    0.0    0.0    0    0   12    2    0   12  0.000  0.000  0.000  0.114  0.000  0.000
 First Flower-First Seed   10  30.2  19.5  24.8  18.6  12.18  338.5   34.9    0.0    0.0    0    0    6    0    0    4  0.000  0.000  0.000  0.000  0.000  0.000
 First Seed - Phys. Mat.   13  29.1  19.3  24.2  17.5  12.19  338.5    8.8    0.0    0.0    0    0    5    0    0    6  0.000  0.000  0.000  0.000  0.000  0.000
 Emergence  - Phys. Mat.   49  29.6  19.4  24.5  18.3  12.16  338.4   97.9    0.0    0.0    0    0   23    2    0   22  0.000  0.000  0.000  0.060  0.000  0.000


 Planting to Harvest       77  29.6  19.3  24.5  18.6  12.14  338.4  209.4    0.0    0.0    0    0   39    2    0   29  0.000  0.000  0.000  0.038  0.000  0.000
----------------------------------------------------------------------------------------------------------------------------------------------------------------

--------------------------------------------------------------------------------------------------------------

                  Dry bean YIELD :     2066 kg/ha    [Dry weight] 

**************************************************************************************************************

*DSSAT Cropping System Model Ver. 4.6.1.000 -release      JUL 11, 2017; 16:24:55
                                                                                
*RUN   2        : SIM                       CRGRO046 8\000008    1              
 MODEL          : CRGRO046 - Dry bean                                           
 EXPERIMENT     : 8\000008 BN PALMIRA_ANALISIS SENSIBILIDAD                     
 DATA PATH      : D:\B\0\00000                                                  
 TREATMENT  1   : SIM                       CRGRO046                            
                                                                                
                                                                                
 CROP           : Dry bean         CULTIVAR : Jatu Rong        ECOTYPE :ANDIND  
 STARTING DATE  : APR  2 1981                                                   
 PLANTING DATE  : APR 16 1981        PLANTS/m2 : 26.6     ROW SPACING :  60.cm  
 WEATHER        : PALM8034                                                      
 SOIL           : CCPA000030     TEXTURE : C     -   Silty Clay Loam            
 WATER BALANCE  : NOT SIMULATED ; NO H2O-STRESS                                 
 IRRIGATION     :                                                               
 NITROGEN BAL.  : NOT SIMULATED ; NO N-STRESS                                   
 N-FERTILIZER   :                                                               
 RESIDUE/MANURE :                                                               
 ENVIRONM. OPT. : DAYL=    0.00  SRAD=    0.00  TMAX=    0.00  TMIN=    0.00    
                  RAIN=    0.00  CO2 =    0.00  DEW =    0.00  WIND=    0.00    
 SIMULATION OPT : WATER   :N  NITROGEN:N  N-FIX:N  PHOSPH :N  PESTS  :N         
                  PHOTO   :L  ET      :R  INFIL:S  HYDROL :R  SOM    :G         
                  CO2 340ppm  NSWIT   :1  EVAP :S  SOIL   :2  STEMP  :D         
 MANAGEMENT OPT : PLANTING:A  IRRIG   :A  FERT :D  RESIDUE:N  HARVEST:M         
                  WEATHER :M  TILLAGE :N                                        
                                                                                
*SUMMARY OF SOIL AND GENETIC INPUT PARAMETERS                                   
                                                                                
 Dry bean   CULTIVAR :000008-Jatu Rong          ECOTYPE :ANDIND                 
 CSDVAR :12.17  PPSEN  : 0.05  EMG-FLW:25.00  FLW-FSD: 9.00  FSD-PHM : 11.00    
 WTPSD  :0.600  SDPDVR : 3.50  SDFDUR :15.00  PODDUR :10.00  XFRUIT  :  1.00    
 THRESH : 78.0  SDPRO  :0.235  SDLIP   : 0.030                                  


*SIMULATED CROP AND SOIL STATUS AT MAIN DEVELOPMENT STAGES

 RUN NO.     2     SIM                     

        CROP GROWTH     BIOMASS         LEAF   CROP N     STRESS      STRESS                                           
   DATE  AGE STAGE        kg/ha    LAI   NUM  kg/ha  %   H2O  Nitr Phos1 Phos2  RSTG                                   
 ------  --- ----------   -----  -----  ----  ---  ---  ----  ----  ----  ----  ----                                   
  2 APR    0 Start Sim        0   0.00   0.0    0  0.0  0.00  0.00  0.00  0.00     0
 16 APR    0 Sowing           0   0.00   0.0    0  0.0  0.00  0.00  0.00  0.00     0
 21 APR    5 Emergence       44   0.08   0.2    1  3.4  0.00  0.00  0.00  0.00     0
 21 APR    5 End Juven.      44   0.08   0.2    1  3.4  0.00  0.00  0.00  0.00     0
 24 APR    8 Unifoliate      48   0.09   1.1    2  3.3  0.00  0.66  0.00  0.00     0
 26 APR   10 Flower Ind      54   0.10   1.7    2  3.2  0.00  0.47  0.00  0.00     0
 18 MAY   32 First Flwr    1000   2.55   7.9   32  3.2  0.00  0.01  0.00  0.00     1
 21 MAY   35 First Pod     1357   3.12   8.8   42  3.1  0.00  0.00  0.00  0.00     3
 28 MAY   42 First Seed    2354   3.73  10.9   70  3.0  0.00  0.00  0.00  0.00     5
 30 MAY   44 End Msnode    2656   3.73  11.5   78  2.9  0.00  0.00  0.00  0.00     5
  4 JUN   49 End Pod       3363   3.44  11.5   97  2.9  0.00  0.00  0.00  0.00     5
  7 JUN   52 End Leaf      3751   3.18  11.5  106  2.8  0.00  0.00  0.00  0.00     5
  9 JUN   54 Phys. Mat     4009   2.99  11.5  112  2.8  0.00  0.00  0.00  0.00     7
 18 JUN   63 Harv. Mat     3631   0.21  11.5  100  2.8  0.00  0.00  0.00  0.00     8
 18 JUN   63 Harvest       3631   0.21  11.5  100  2.8  0.00  0.00  0.00  0.00     8


*MAIN GROWTH AND DEVELOPMENT VARIABLES

@     VARIABLE                                         SIMULATED     MEASURED
      --------                                         ---------     --------
      Anthesis day (dap)                                      32          -99
      First pod day (dap)                                     35          -99
      First seed day (dap)                                    42          -99
      Physiological maturity day (dap)                        54          -99
      Yield at harvest maturity (kg [dm]/ha)                1878          -99
      Pod/Ear/Panicle weight at maturity (kg [dm]/ha)       2760          -99
      Number at maturity (no/m2)                             576          -99
      Unit wt at maturity (g [dm]/unit)                   0.3259          -99
      Number at maturity (no/unit)                          3.50          -99
      Tops weight at maturity (kg [dm]/ha)                  3631          -99
      By-product produced (stalk) at maturity (kg[dm]/ha    1750          -99
      Leaf area index, maximum                              3.74          -99
      Harvest index at maturity                            0.517          -99
      Threshing % at maturity                              68.04          -99
      Grain N at maturity (kg/ha)                             71          -99
      Tops N at maturity (kg/ha)                             100          -99
      Stem N at maturity (kg/ha)                              10          -99
      Grain N at maturity (%)                               3.77          -99
      Tops weight at anthesis (kg [dm]/ha)                  1000          -99
      Tops N at anthesis (kg/ha)                              32          -99
      Leaf number per stem at maturity                     11.45          -99
      Grain oil at maturity (%)                             2.86          -99
      Canopy height (m)                                     0.99          -99
      Harvest maturity day (dap)                              63          -99
      Emergence day (dap)                                      5          -99


*ENVIRONMENTAL AND STRESS FACTORS

 |-----Development Phase------|--------------------------------------Environment--------------------------------------|-----------------Stress-----------------|
                              |---------------Average--------------|-----Cumulative-----|--------Count of days--------|          (0=Min, 1=Max Stress)         |
                         Time  Temp  Temp  Temp Solar Photop                Evapo    Pot TMIN TMIN TMAX TMAX TMAX RAIN|----Water----|---Nitrogen--|-Phosphorus-|
                         Span   Max   Min  Mean   Rad  [day]    CO2   Rain  Trans     ET   <    <    >    >    >    >   Photo         Photo         Photo
                         days    øC    øC    øC MJ/m2     hr    ppm     mm     mm     mm  0øC  2øC 30øC 32øC 34øC  0mm  synth Growth  synth Growth  synth Growth
----------------------------------------------------------------------------------------------------------------------------------------------------------------
 Emergence -First Flower   27  28.1  19.0  23.5  17.5  12.13  339.7  113.0    0.0    0.0    0    0    1    0    0   19  0.000  0.000  0.000  0.118  0.000  0.000
 First Flower-First Seed   10  29.0  19.0  24.0  17.9  12.18  339.8   82.9    0.0    0.0    0    0    4    0    0    7  0.000  0.000  0.000  0.000  0.000  0.000
 First Seed - Phys. Mat.   12  28.5  19.4  23.9  16.9  12.19  339.8   26.8    0.0    0.0    0    0    3    0    0    4  0.000  0.000  0.000  0.000  0.000  0.000
 Emergence  - Phys. Mat.   49  28.4  19.1  23.7  17.5  12.16  339.8  222.7    0.0    0.0    0    0    8    0    0   30  0.000  0.000  0.000  0.065  0.000  0.000


 Planting to Harvest       77  28.5  19.2  23.9  17.6  12.14  339.8  405.1    0.0    0.0    0    0   15    0    0   46  0.000  0.000  0.000  0.042  0.000  0.000
----------------------------------------------------------------------------------------------------------------------------------------------------------------

--------------------------------------------------------------------------------------------------------------

                  Dry bean YIELD :     1878 kg/ha    [Dry weight] 

**************************************************************************************************************

*DSSAT Cropping System Model Ver. 4.6.1.000 -release      JUL 11, 2017; 16:24:55
                                                                                
*RUN   3        : SIM                       CRGRO046 8\000008    1              
 MODEL          : CRGRO046 - Dry bean                                           
 EXPERIMENT     : 8\000008 BN PALMIRA_ANALISIS SENSIBILIDAD                     
 DATA PATH      : D:\B\0\00000                                                  
 TREATMENT  1   : SIM                       CRGRO046                            
                                                                                
                                                                                
 CROP           : Dry bean         CULTIVAR : Jatu Rong        ECOTYPE :ANDIND  
 STARTING DATE  : APR  2 1982                                                   
 PLANTING DATE  : APR 16 1982        PLANTS/m2 : 26.6     ROW SPACING :  60.cm  
 WEATHER        : PALM8034                                                      
 SOIL           : CCPA000030     TEXTURE : C     -   Silty Clay Loam            
 WATER BALANCE  : NOT SIMULATED ; NO H2O-STRESS                                 
 IRRIGATION     :                                                               
 NITROGEN BAL.  : NOT SIMULATED ; NO N-STRESS                                   
 N-FERTILIZER   :                                                               
 RESIDUE/MANURE :                                                               
 ENVIRONM. OPT. : DAYL=    0.00  SRAD=    0.00  TMAX=    0.00  TMIN=    0.00    
                  RAIN=    0.00  CO2 =    0.00  DEW =    0.00  WIND=    0.00    
 SIMULATION OPT : WATER   :N  NITROGEN:N  N-FIX:N  PHOSPH :N  PESTS  :N         
                  PHOTO   :L  ET      :R  INFIL:S  HYDROL :R  SOM    :G         
                  CO2 341ppm  NSWIT   :1  EVAP :S  SOIL   :2  STEMP  :D         
 MANAGEMENT OPT : PLANTING:A  IRRIG   :A  FERT :D  RESIDUE:N  HARVEST:M         
                  WEATHER :M  TILLAGE :N                                        
                                                                                
*SUMMARY OF SOIL AND GENETIC INPUT PARAMETERS                                   
                                                                                
 Dry bean   CULTIVAR :000008-Jatu Rong          ECOTYPE :ANDIND                 
 CSDVAR :12.17  PPSEN  : 0.05  EMG-FLW:25.00  FLW-FSD: 9.00  FSD-PHM : 11.00    
 WTPSD  :0.600  SDPDVR : 3.50  SDFDUR :15.00  PODDUR :10.00  XFRUIT  :  1.00    
 THRESH : 78.0  SDPRO  :0.235  SDLIP   : 0.030                                  


*SIMULATED CROP AND SOIL STATUS AT MAIN DEVELOPMENT STAGES

 RUN NO.     3     SIM                     

        CROP GROWTH     BIOMASS         LEAF   CROP N     STRESS      STRESS                                           
   DATE  AGE STAGE        kg/ha    LAI   NUM  kg/ha  %   H2O  Nitr Phos1 Phos2  RSTG                                   
 ------  --- ----------   -----  -----  ----  ---  ---  ----  ----  ----  ----  ----                                   
  2 APR    0 Start Sim        0   0.00   0.0    0  0.0  0.00  0.00  0.00  0.00     0
 16 APR    0 Sowing           0   0.00   0.0    0  0.0  0.00  0.00  0.00  0.00     0
 21 APR    5 Emergence       44   0.08   0.2    1  3.4  0.00  0.00  0.00  0.00     0
 21 APR    5 End Juven.      44   0.08   0.2    1  3.4  0.00  0.00  0.00  0.00     0
 24 APR    8 Unifoliate      49   0.09   1.1    2  3.3  0.00  0.65  0.00  0.00     0
 26 APR   10 Flower Ind      55   0.10   1.7    2  3.2  0.00  0.44  0.00  0.00     0
 18 MAY   32 First Flwr    1067   2.64   8.2   34  3.2  0.00  0.01  0.00  0.00     1
 20 MAY   34 First Pod     1302   3.03   8.8   41  3.1  0.00  0.00  0.00  0.00     3
 28 MAY   42 First Seed    2393   3.77  11.0   70  2.9  0.00  0.00  0.00  0.00     5
 30 MAY   44 End Msnode    2701   3.77  11.6   78  2.9  0.00  0.00  0.00  0.00     5
  3 JUN   48 End Pod       3271   3.55  11.6   93  2.9  0.00  0.00  0.00  0.00     5
  6 JUN   51 End Leaf      3665   3.28  11.6  103  2.8  0.00  0.00  0.00  0.00     5
  9 JUN   54 Phys. Mat     4060   2.98  11.6  112  2.8  0.00  0.00  0.00  0.00     7
 18 JUN   63 Harv. Mat     3730   0.20  11.6  103  2.8  0.00  0.00  0.00  0.00     8
 18 JUN   63 Harvest       3730   0.20  11.6  103  2.8  0.00  0.00  0.00  0.00     8


*MAIN GROWTH AND DEVELOPMENT VARIABLES

@     VARIABLE                                         SIMULATED     MEASURED
      --------                                         ---------     --------
      Anthesis day (dap)                                      32          -99
      First pod day (dap)                                     34          -99
      First seed day (dap)                                    42          -99
      Physiological maturity day (dap)                        54          -99
      Yield at harvest maturity (kg [dm]/ha)                1944          -99
      Pod/Ear/Panicle weight at maturity (kg [dm]/ha)       2796          -99
      Number at maturity (no/m2)                             541          -99
      Unit wt at maturity (g [dm]/unit)                   0.3596          -99
      Number at maturity (no/unit)                          3.50          -99
      Tops weight at maturity (kg [dm]/ha)                  3730          -99
      By-product produced (stalk) at maturity (kg[dm]/ha    1790          -99
      Leaf area index, maximum                              3.78          -99
      Harvest index at maturity                            0.521          -99
      Threshing % at maturity                              69.54          -99
      Grain N at maturity (kg/ha)                             74          -99
      Tops N at maturity (kg/ha)                             103          -99
      Stem N at maturity (kg/ha)                              10          -99
      Grain N at maturity (%)                               3.80          -99
      Tops weight at anthesis (kg [dm]/ha)                  1067          -99
      Tops N at anthesis (kg/ha)                              34          -99
      Leaf number per stem at maturity                     11.62          -99
      Grain oil at maturity (%)                             2.87          -99
      Canopy height (m)                                     1.02          -99
      Harvest maturity day (dap)                              63          -99
      Emergence day (dap)                                      5          -99


*ENVIRONMENTAL AND STRESS FACTORS

 |-----Development Phase------|--------------------------------------Environment--------------------------------------|-----------------Stress-----------------|
                              |---------------Average--------------|-----Cumulative-----|--------Count of days--------|          (0=Min, 1=Max Stress)         |
                         Time  Temp  Temp  Temp Solar Photop                Evapo    Pot TMIN TMIN TMAX TMAX TMAX RAIN|----Water----|---Nitrogen--|-Phosphorus-|
                         Span   Max   Min  Mean   Rad  [day]    CO2   Rain  Trans     ET   <    <    >    >    >    >   Photo         Photo         Photo
                         days    øC    øC    øC MJ/m2     hr    ppm     mm     mm     mm  0øC  2øC 30øC 32øC 34øC  0mm  synth Growth  synth Growth  synth Growth
----------------------------------------------------------------------------------------------------------------------------------------------------------------
 Emergence -First Flower   27  29.5  19.4  24.5  18.5  12.13  340.9   62.5    0.0    0.0    0    0   11    2    0    9  0.000  0.000  0.000  0.112  0.000  0.000
 First Flower-First Seed   10  27.1  18.9  23.0  16.3  12.18  341.0   57.6    0.0    0.0    0    0    0    0    0    6  0.000  0.000  0.000  0.000  0.000  0.000
 First Seed - Phys. Mat.   12  29.4  19.9  24.7  17.4  12.19  341.0    7.0    0.0    0.0    0    0    3    0    0    2  0.000  0.000  0.000  0.000  0.000  0.000
 Emergence  - Phys. Mat.   49  29.0  19.4  24.2  17.7  12.16  340.9  127.1    0.0    0.0    0    0   14    2    0   17  0.000  0.000  0.000  0.061  0.000  0.000


 Planting to Harvest       77  29.1  19.3  24.2  18.0  12.14  340.9  260.9    0.0    0.0    0    0   23    3    0   29  0.000  0.000  0.000  0.039  0.000  0.000
----------------------------------------------------------------------------------------------------------------------------------------------------------------

--------------------------------------------------------------------------------------------------------------

                  Dry bean YIELD :     1944 kg/ha    [Dry weight] 

**************************************************************************************************************

*DSSAT Cropping System Model Ver. 4.6.1.000 -release      JUL 11, 2017; 16:24:55
                                                                                
*RUN   4        : SIM                       CRGRO046 8\000008    1              
 MODEL          : CRGRO046 - Dry bean                                           
 EXPERIMENT     : 8\000008 BN PALMIRA_ANALISIS SENSIBILIDAD                     
 DATA PATH      : D:\B\0\00000                                                  
 TREATMENT  1   : SIM                       CRGRO046                            
                                                                                
                                                                                
 CROP           : Dry bean         CULTIVAR : Jatu Rong        ECOTYPE :ANDIND  
 STARTING DATE  : APR  2 1983                                                   
 PLANTING DATE  : APR 16 1983        PLANTS/m2 : 26.6     ROW SPACING :  60.cm  
 WEATHER        : PALM8034                                                      
 SOIL           : CCPA000030     TEXTURE : C     -   Silty Clay Loam            
 WATER BALANCE  : NOT SIMULATED ; NO H2O-STRESS                                 
 IRRIGATION     :                                                               
 NITROGEN BAL.  : NOT SIMULATED ; NO N-STRESS                                   
 N-FERTILIZER   :                                                               
 RESIDUE/MANURE :                                                               
 ENVIRONM. OPT. : DAYL=    0.00  SRAD=    0.00  TMAX=    0.00  TMIN=    0.00    
                  RAIN=    0.00  CO2 =    0.00  DEW =    0.00  WIND=    0.00    
 SIMULATION OPT : WATER   :N  NITROGEN:N  N-FIX:N  PHOSPH :N  PESTS  :N         
                  PHOTO   :L  ET      :R  INFIL:S  HYDROL :R  SOM    :G         
                  CO2 342ppm  NSWIT   :1  EVAP :S  SOIL   :2  STEMP  :D         
 MANAGEMENT OPT : PLANTING:A  IRRIG   :A  FERT :D  RESIDUE:N  HARVEST:M         
                  WEATHER :M  TILLAGE :N                                        
                                                                                
*SUMMARY OF SOIL AND GENETIC INPUT PARAMETERS                                   
                                                                                
 Dry bean   CULTIVAR :000008-Jatu Rong          ECOTYPE :ANDIND                 
 CSDVAR :12.17  PPSEN  : 0.05  EMG-FLW:25.00  FLW-FSD: 9.00  FSD-PHM : 11.00    
 WTPSD  :0.600  SDPDVR : 3.50  SDFDUR :15.00  PODDUR :10.00  XFRUIT  :  1.00    
 THRESH : 78.0  SDPRO  :0.235  SDLIP   : 0.030                                  


*SIMULATED CROP AND SOIL STATUS AT MAIN DEVELOPMENT STAGES

 RUN NO.     4     SIM                     

        CROP GROWTH     BIOMASS         LEAF   CROP N     STRESS      STRESS                                           
   DATE  AGE STAGE        kg/ha    LAI   NUM  kg/ha  %   H2O  Nitr Phos1 Phos2  RSTG                                   
 ------  --- ----------   -----  -----  ----  ---  ---  ----  ----  ----  ----  ----                                   
  2 APR    0 Start Sim        0   0.00   0.0    0  0.0  0.00  0.00  0.00  0.00     0
 16 APR    0 Sowing           0   0.00   0.0    0  0.0  0.00  0.00  0.00  0.00     0
 21 APR    5 Emergence       44   0.08   0.2    1  3.4  0.00  0.00  0.00  0.00     0
 21 APR    5 End Juven.      44   0.08   0.2    1  3.4  0.00  0.00  0.00  0.00     0
 24 APR    8 Unifoliate      48   0.09   1.1    2  3.3  0.00  0.66  0.00  0.00     0
 26 APR   10 Flower Ind      55   0.10   1.7    2  3.2  0.00  0.43  0.00  0.00     0
 17 MAY   31 First Flwr     996   2.51   8.0   32  3.2  0.00  0.01  0.00  0.00     1
 20 MAY   34 First Pod     1347   3.11   8.9   42  3.1  0.00  0.00  0.00  0.00     3
 27 MAY   41 First Seed    2373   3.74  11.0   70  3.0  0.00  0.00  0.00  0.00     5
 29 MAY   43 End Msnode    2679   3.74  11.6   78  2.9  0.00  0.00  0.00  0.00     5
  3 JUN   48 End Pod       3381   3.45  11.6   98  2.9  0.00  0.00  0.00  0.00     5
  6 JUN   51 End Leaf      3799   3.19  11.6  108  2.8  0.00  0.00  0.00  0.00     5
  8 JUN   53 Phys. Mat     4055   2.99  11.6  114  2.8  0.00  0.00  0.00  0.00     7
 17 JUN   62 Harv. Mat     3715   0.21  11.6  103  2.8  0.00  0.00  0.00  0.00     8
 17 JUN   62 Harvest       3715   0.21  11.6  103  2.8  0.00  0.00  0.00  0.00     8


*MAIN GROWTH AND DEVELOPMENT VARIABLES

@     VARIABLE                                         SIMULATED     MEASURED
      --------                                         ---------     --------
      Anthesis day (dap)                                      31          -99
      First pod day (dap)                                     34          -99
      First seed day (dap)                                    41          -99
      Physiological maturity day (dap)                        53          -99
      Yield at harvest maturity (kg [dm]/ha)                1956          -99
      Pod/Ear/Panicle weight at maturity (kg [dm]/ha)       2818          -99
      Number at maturity (no/m2)                             548          -99
      Unit wt at maturity (g [dm]/unit)                   0.3567          -99
      Number at maturity (no/unit)                          3.50          -99
      Tops weight at maturity (kg [dm]/ha)                  3715          -99
      By-product produced (stalk) at maturity (kg[dm]/ha    1760          -99
      Leaf area index, maximum                              3.75          -99
      Harvest index at maturity                            0.526          -99
      Threshing % at maturity                              69.40          -99
      Grain N at maturity (kg/ha)                             74          -99
      Tops N at maturity (kg/ha)                             103          -99
      Stem N at maturity (kg/ha)                              10          -99
      Grain N at maturity (%)                               3.78          -99
      Tops weight at anthesis (kg [dm]/ha)                   996          -99
      Tops N at anthesis (kg/ha)                              32          -99
      Leaf number per stem at maturity                     11.59          -99
      Grain oil at maturity (%)                             2.87          -99
      Canopy height (m)                                     1.01          -99
      Harvest maturity day (dap)                              62          -99
      Emergence day (dap)                                      5          -99


*ENVIRONMENTAL AND STRESS FACTORS

 |-----Development Phase------|--------------------------------------Environment--------------------------------------|-----------------Stress-----------------|
                              |---------------Average--------------|-----Cumulative-----|--------Count of days--------|          (0=Min, 1=Max Stress)         |
                         Time  Temp  Temp  Temp Solar Photop                Evapo    Pot TMIN TMIN TMAX TMAX TMAX RAIN|----Water----|---Nitrogen--|-Phosphorus-|
                         Span   Max   Min  Mean   Rad  [day]    CO2   Rain  Trans     ET   <    <    >    >    >    >   Photo         Photo         Photo
                         days    øC    øC    øC MJ/m2     hr    ppm     mm     mm     mm  0øC  2øC 30øC 32øC 34øC  0mm  synth Growth  synth Growth  synth Growth
----------------------------------------------------------------------------------------------------------------------------------------------------------------
 Emergence -First Flower   26  29.7  19.8  24.8  18.4  12.13  342.3   81.9    0.0    0.0    0    0   12    0    0   10  0.000  0.000  0.000  0.117  0.000  0.000
 First Flower-First Seed   10  29.7  19.5  24.6  18.2  12.18  342.5   29.1    0.0    0.0    0    0    4    0    0    5  0.000  0.000  0.000  0.000  0.000  0.000
 First Seed - Phys. Mat.   12  28.9  19.4  24.1  17.3  12.19  342.5   16.6    0.0    0.0    0    0    3    0    0    4  0.000  0.000  0.000  0.000  0.000  0.000
 Emergence  - Phys. Mat.   48  29.5  19.6  24.6  18.1  12.16  342.4  127.6    0.0    0.0    0    0   19    0    0   19  0.000  0.000  0.000  0.063  0.000  0.000


 Planting to Harvest       76  29.5  19.6  24.6  18.2  12.14  342.4  227.8    0.0    0.0    0    0   29    0    0   36  0.000  0.000  0.000  0.040  0.000  0.000
----------------------------------------------------------------------------------------------------------------------------------------------------------------

--------------------------------------------------------------------------------------------------------------

                  Dry bean YIELD :     1956 kg/ha    [Dry weight] 

**************************************************************************************************************

*DSSAT Cropping System Model Ver. 4.6.1.000 -release      JUL 11, 2017; 16:24:55
                                                                                
*RUN   5        : SIM                       CRGRO046 8\000008    1              
 MODEL          : CRGRO046 - Dry bean                                           
 EXPERIMENT     : 8\000008 BN PALMIRA_ANALISIS SENSIBILIDAD                     
 DATA PATH      : D:\B\0\00000                                                  
 TREATMENT  1   : SIM                       CRGRO046                            
                                                                                
                                                                                
 CROP           : Dry bean         CULTIVAR : Jatu Rong        ECOTYPE :ANDIND  
 STARTING DATE  : APR  1 1984                                                   
 PLANTING DATE  : APR 15 1984        PLANTS/m2 : 26.6     ROW SPACING :  60.cm  
 WEATHER        : PALM8034                                                      
 SOIL           : CCPA000030     TEXTURE : C     -   Silty Clay Loam            
 WATER BALANCE  : NOT SIMULATED ; NO H2O-STRESS                                 
 IRRIGATION     :                                                               
 NITROGEN BAL.  : NOT SIMULATED ; NO N-STRESS                                   
 N-FERTILIZER   :                                                               
 RESIDUE/MANURE :                                                               
 ENVIRONM. OPT. : DAYL=    0.00  SRAD=    0.00  TMAX=    0.00  TMIN=    0.00    
                  RAIN=    0.00  CO2 =    0.00  DEW =    0.00  WIND=    0.00    
 SIMULATION OPT : WATER   :N  NITROGEN:N  N-FIX:N  PHOSPH :N  PESTS  :N         
                  PHOTO   :L  ET      :R  INFIL:S  HYDROL :R  SOM    :G         
                  CO2 344ppm  NSWIT   :1  EVAP :S  SOIL   :2  STEMP  :D         
 MANAGEMENT OPT : PLANTING:A  IRRIG   :A  FERT :D  RESIDUE:N  HARVEST:M         
                  WEATHER :M  TILLAGE :N                                        
                                                                                
*SUMMARY OF SOIL AND GENETIC INPUT PARAMETERS                                   
                                                                                
 Dry bean   CULTIVAR :000008-Jatu Rong          ECOTYPE :ANDIND                 
 CSDVAR :12.17  PPSEN  : 0.05  EMG-FLW:25.00  FLW-FSD: 9.00  FSD-PHM : 11.00    
 WTPSD  :0.600  SDPDVR : 3.50  SDFDUR :15.00  PODDUR :10.00  XFRUIT  :  1.00    
 THRESH : 78.0  SDPRO  :0.235  SDLIP   : 0.030                                  


*SIMULATED CROP AND SOIL STATUS AT MAIN DEVELOPMENT STAGES

 RUN NO.     5     SIM                     

        CROP GROWTH     BIOMASS         LEAF   CROP N     STRESS      STRESS                                           
   DATE  AGE STAGE        kg/ha    LAI   NUM  kg/ha  %   H2O  Nitr Phos1 Phos2  RSTG                                   
 ------  --- ----------   -----  -----  ----  ---  ---  ----  ----  ----  ----  ----                                   
  1 APR    0 Start Sim        0   0.00   0.0    0  0.0  0.00  0.00  0.00  0.00     0
 15 APR    0 Sowing           0   0.00   0.0    0  0.0  0.00  0.00  0.00  0.00     0
 20 APR    5 Emergence       44   0.08   0.2    1  3.4  0.00  0.00  0.00  0.00     0
 20 APR    5 End Juven.      44   0.08   0.2    1  3.4  0.00  0.00  0.00  0.00     0
 23 APR    8 Unifoliate      49   0.09   1.1    2  3.3  0.00  0.64  0.00  0.00     0
 25 APR   10 Flower Ind      55   0.10   1.7    2  3.2  0.00  0.45  0.00  0.00     0
 17 MAY   32 First Flwr    1051   2.59   8.0   33  3.2  0.00  0.01  0.00  0.00     1
 20 MAY   35 First Pod     1418   3.19   8.9   44  3.1  0.00  0.00  0.00  0.00     3
 27 MAY   42 First Seed    2397   3.82  10.8   71  3.0  0.00  0.00  0.00  0.00     5
 29 MAY   44 End Msnode    2712   3.83  11.4   79  2.9  0.00  0.00  0.00  0.00     5
  3 JUN   49 End Pod       3436   3.56  11.4   99  2.9  0.00  0.00  0.00  0.00     5
  6 JUN   52 End Leaf      3852   3.29  11.4  109  2.8  0.00  0.00  0.00  0.00     5
  9 JUN   55 Phys. Mat     4242   3.01  11.4  118  2.8  0.00  0.00  0.00  0.00     7
 18 JUN   64 Harv. Mat     3912   0.21  11.4  108  2.8  0.00  0.00  0.00  0.00     8
 18 JUN   64 Harvest       3912   0.21  11.4  108  2.8  0.00  0.00  0.00  0.00     8


*MAIN GROWTH AND DEVELOPMENT VARIABLES

@     VARIABLE                                         SIMULATED     MEASURED
      --------                                         ---------     --------
      Anthesis day (dap)                                      32          -99
      First pod day (dap)                                     35          -99
      First seed day (dap)                                    42          -99
      Physiological maturity day (dap)                        55          -99
      Yield at harvest maturity (kg [dm]/ha)                2093          -99
      Pod/Ear/Panicle weight at maturity (kg [dm]/ha)       3008          -99
      Number at maturity (no/m2)                             583          -99
      Unit wt at maturity (g [dm]/unit)                   0.3592          -99
      Number at maturity (no/unit)                          3.50          -99
      Tops weight at maturity (kg [dm]/ha)                  3912          -99
      By-product produced (stalk) at maturity (kg[dm]/ha    1820          -99
      Leaf area index, maximum                              3.83          -99
      Harvest index at maturity                            0.535          -99
      Threshing % at maturity                              69.57          -99
      Grain N at maturity (kg/ha)                             78          -99
      Tops N at maturity (kg/ha)                             108          -99
      Stem N at maturity (kg/ha)                              10          -99
      Grain N at maturity (%)                               3.74          -99
      Tops weight at anthesis (kg [dm]/ha)                  1051          -99
      Tops N at anthesis (kg/ha)                              33          -99
      Leaf number per stem at maturity                     11.43          -99
      Grain oil at maturity (%)                             2.88          -99
      Canopy height (m)                                     0.99          -99
      Harvest maturity day (dap)                              64          -99
      Emergence day (dap)                                      5          -99


*ENVIRONMENTAL AND STRESS FACTORS

 |-----Development Phase------|--------------------------------------Environment--------------------------------------|-----------------Stress-----------------|
                              |---------------Average--------------|-----Cumulative-----|--------Count of days--------|          (0=Min, 1=Max Stress)         |
                         Time  Temp  Temp  Temp Solar Photop                Evapo    Pot TMIN TMIN TMAX TMAX TMAX RAIN|----Water----|---Nitrogen--|-Phosphorus-|
                         Span   Max   Min  Mean   Rad  [day]    CO2   Rain  Trans     ET   <    <    >    >    >    >   Photo         Photo         Photo
                         days    øC    øC    øC MJ/m2     hr    ppm     mm     mm     mm  0øC  2øC 30øC 32øC 34øC  0mm  synth Growth  synth Growth  synth Growth
----------------------------------------------------------------------------------------------------------------------------------------------------------------
 Emergence -First Flower   27  28.4  18.8  23.6  18.1  12.13  344.2   67.2    0.0    0.0    0    0    2    0    0   13  0.000  0.000  0.000  0.111  0.000  0.000
 First Flower-First Seed   10  27.6  18.8  23.2  16.7  12.18  344.3   41.3    0.0    0.0    0    0    1    0    0    8  0.000  0.000  0.000  0.000  0.000  0.000
 First Seed - Phys. Mat.   13  28.3  18.8  23.6  17.3  12.19  344.3   27.8    0.0    0.0    0    0    3    0    0    6  0.000  0.000  0.000  0.000  0.000  0.000
 Emergence  - Phys. Mat.   50  28.2  18.8  23.5  17.6  12.16  344.2  136.3    0.0    0.0    0    0    6    0    0   27  0.000  0.000  0.000  0.060  0.000  0.000


 Planting to Harvest       78  28.6  18.8  23.7  18.0  12.14  344.2  207.0    0.0    0.0    0    0   12    0    0   39  0.000  0.000  0.000  0.038  0.000  0.000
----------------------------------------------------------------------------------------------------------------------------------------------------------------

--------------------------------------------------------------------------------------------------------------

                  Dry bean YIELD :     2093 kg/ha    [Dry weight] 

**************************************************************************************************************

*DSSAT Cropping System Model Ver. 4.6.1.000 -release      JUL 11, 2017; 16:24:55
                                                                                
*RUN   6        : SIM                       CRGRO046 8\000008    1              
 MODEL          : CRGRO046 - Dry bean                                           
 EXPERIMENT     : 8\000008 BN PALMIRA_ANALISIS SENSIBILIDAD                     
 DATA PATH      : D:\B\0\00000                                                  
 TREATMENT  1   : SIM                       CRGRO046                            
                                                                                
                                                                                
 CROP           : Dry bean         CULTIVAR : Jatu Rong        ECOTYPE :ANDIND  
 STARTING DATE  : APR  2 1985                                                   
 PLANTING DATE  : APR 16 1985        PLANTS/m2 : 26.6     ROW SPACING :  60.cm  
 WEATHER        : PALM8034                                                      
 SOIL           : CCPA000030     TEXTURE : C     -   Silty Clay Loam            
 WATER BALANCE  : NOT SIMULATED ; NO H2O-STRESS                                 
 IRRIGATION     :                                                               
 NITROGEN BAL.  : NOT SIMULATED ; NO N-STRESS                                   
 N-FERTILIZER   :                                                               
 RESIDUE/MANURE :                                                               
 ENVIRONM. OPT. : DAYL=    0.00  SRAD=    0.00  TMAX=    0.00  TMIN=    0.00    
                  RAIN=    0.00  CO2 =    0.00  DEW =    0.00  WIND=    0.00    
 SIMULATION OPT : WATER   :N  NITROGEN:N  N-FIX:N  PHOSPH :N  PESTS  :N         
                  PHOTO   :L  ET      :R  INFIL:S  HYDROL :R  SOM    :G         
                  CO2 346ppm  NSWIT   :1  EVAP :S  SOIL   :2  STEMP  :D         
 MANAGEMENT OPT : PLANTING:A  IRRIG   :A  FERT :D  RESIDUE:N  HARVEST:M         
                  WEATHER :M  TILLAGE :N                                        
                                                                                
*SUMMARY OF SOIL AND GENETIC INPUT PARAMETERS                                   
                                                                                
 Dry bean   CULTIVAR :000008-Jatu Rong          ECOTYPE :ANDIND                 
 CSDVAR :12.17  PPSEN  : 0.05  EMG-FLW:25.00  FLW-FSD: 9.00  FSD-PHM : 11.00    
 WTPSD  :0.600  SDPDVR : 3.50  SDFDUR :15.00  PODDUR :10.00  XFRUIT  :  1.00    
 THRESH : 78.0  SDPRO  :0.235  SDLIP   : 0.030                                  


*SIMULATED CROP AND SOIL STATUS AT MAIN DEVELOPMENT STAGES

 RUN NO.     6     SIM                     

        CROP GROWTH     BIOMASS         LEAF   CROP N     STRESS      STRESS                                           
   DATE  AGE STAGE        kg/ha    LAI   NUM  kg/ha  %   H2O  Nitr Phos1 Phos2  RSTG                                   
 ------  --- ----------   -----  -----  ----  ---  ---  ----  ----  ----  ----  ----                                   
  2 APR    0 Start Sim        0   0.00   0.0    0  0.0  0.00  0.00  0.00  0.00     0
 16 APR    0 Sowing           0   0.00   0.0    0  0.0  0.00  0.00  0.00  0.00     0
 21 APR    5 Emergence       44   0.08   0.2    1  3.4  0.00  0.00  0.00  0.00     0
 21 APR    5 End Juven.      44   0.08   0.2    1  3.4  0.00  0.00  0.00  0.00     0
 24 APR    8 Unifoliate      48   0.09   1.1    2  3.3  0.00  0.66  0.00  0.00     0
 26 APR   10 Flower Ind      55   0.10   1.6    2  3.2  0.00  0.43  0.00  0.00     0
 18 MAY   32 First Flwr    1059   2.62   8.0   34  3.2  0.00  0.01  0.00  0.00     1
 21 MAY   35 First Pod     1430   3.24   8.9   44  3.1  0.00  0.00  0.00  0.00     3
 28 MAY   42 First Seed    2481   3.88  11.0   73  3.0  0.00  0.00  0.00  0.00     5
 30 MAY   44 End Msnode    2781   3.86  11.6   82  2.9  0.00  0.00  0.00  0.00     5
  4 JUN   49 End Pod       3487   3.54  11.6  101  2.9  0.00  0.00  0.00  0.00     5
  7 JUN   52 End Leaf      3899   3.28  11.6  111  2.9  0.00  0.00  0.00  0.00     5
 10 JUN   55 Phys. Mat     4307   3.00  11.6  121  2.8  0.00  0.00  0.00  0.00     7
 19 JUN   64 Harv. Mat     3987   0.21  11.6  112  2.8  0.00  0.00  0.00  0.00     8
 19 JUN   64 Harvest       3987   0.21  11.6  112  2.8  0.00  0.00  0.00  0.00     8


*MAIN GROWTH AND DEVELOPMENT VARIABLES

@     VARIABLE                                         SIMULATED     MEASURED
      --------                                         ---------     --------
      Anthesis day (dap)                                      32          -99
      First pod day (dap)                                     35          -99
      First seed day (dap)                                    42          -99
      Physiological maturity day (dap)                        55          -99
      Yield at harvest maturity (kg [dm]/ha)                2200          -99
      Pod/Ear/Panicle weight at maturity (kg [dm]/ha)       3109          -99
      Number at maturity (no/m2)                             585          -99
      Unit wt at maturity (g [dm]/unit)                   0.3759          -99
      Number at maturity (no/unit)                          3.50          -99
      Tops weight at maturity (kg [dm]/ha)                  3987          -99
      By-product produced (stalk) at maturity (kg[dm]/ha    1790          -99
      Leaf area index, maximum                              3.89          -99
      Harvest index at maturity                            0.552          -99
      Threshing % at maturity                              70.76          -99
      Grain N at maturity (kg/ha)                             82          -99
      Tops N at maturity (kg/ha)                             112          -99
      Stem N at maturity (kg/ha)                              10          -99
      Grain N at maturity (%)                               3.75          -99
      Tops weight at anthesis (kg [dm]/ha)                  1059          -99
      Tops N at anthesis (kg/ha)                              34          -99
      Leaf number per stem at maturity                     11.59          -99
      Grain oil at maturity (%)                             2.88          -99
      Canopy height (m)                                     1.01          -99
      Harvest maturity day (dap)                              64          -99
      Emergence day (dap)                                      5          -99


*ENVIRONMENTAL AND STRESS FACTORS

 |-----Development Phase------|--------------------------------------Environment--------------------------------------|-----------------Stress-----------------|
                              |---------------Average--------------|-----Cumulative-----|--------Count of days--------|          (0=Min, 1=Max Stress)         |
                         Time  Temp  Temp  Temp Solar Photop                Evapo    Pot TMIN TMIN TMAX TMAX TMAX RAIN|----Water----|---Nitrogen--|-Phosphorus-|
                         Span   Max   Min  Mean   Rad  [day]    CO2   Rain  Trans     ET   <    <    >    >    >    >   Photo         Photo         Photo
                         days    øC    øC    øC MJ/m2     hr    ppm     mm     mm     mm  0øC  2øC 30øC 32øC 34øC  0mm  synth Growth  synth Growth  synth Growth
----------------------------------------------------------------------------------------------------------------------------------------------------------------
 Emergence -First Flower   27  28.9  18.5  23.7  18.8  12.13  345.6   78.8    0.0    0.0    0    0    6    0    0   15  0.000  0.000  0.000  0.111  0.000  0.000
 First Flower-First Seed   10  30.0  19.4  24.7  18.5  12.18  345.7    8.7    0.0    0.0    0    0    5    0    0    3  0.000  0.000  0.000  0.000  0.000  0.000
 First Seed - Phys. Mat.   13  28.3  18.9  23.6  17.2  12.19  345.7   25.5    0.0    0.0    0    0    0    0    0    6  0.000  0.000  0.000  0.000  0.000  0.000
 Emergence  - Phys. Mat.   50  29.0  18.8  23.9  18.3  12.16  345.7  113.0    0.0    0.0    0    0   11    0    0   24  0.000  0.000  0.000  0.060  0.000  0.000


 Planting to Harvest       78  29.3  18.8  24.1  18.6  12.14  345.7  157.3    0.0    0.0    0    0   24    1    0   30  0.000  0.000  0.000  0.039  0.000  0.000
----------------------------------------------------------------------------------------------------------------------------------------------------------------

--------------------------------------------------------------------------------------------------------------

                  Dry bean YIELD :     2200 kg/ha    [Dry weight] 

**************************************************************************************************************

*DSSAT Cropping System Model Ver. 4.6.1.000 -release      JUL 11, 2017; 16:24:55
                                                                                
*RUN   7        : SIM                       CRGRO046 8\000008    1              
 MODEL          : CRGRO046 - Dry bean                                           
 EXPERIMENT     : 8\000008 BN PALMIRA_ANALISIS SENSIBILIDAD                     
 DATA PATH      : D:\B\0\00000                                                  
 TREATMENT  1   : SIM                       CRGRO046                            
                                                                                
                                                                                
 CROP           : Dry bean         CULTIVAR : Jatu Rong        ECOTYPE :ANDIND  
 STARTING DATE  : APR  2 1986                                                   
 PLANTING DATE  : APR 16 1986        PLANTS/m2 : 26.6     ROW SPACING :  60.cm  
 WEATHER        : PALM8034                                                      
 SOIL           : CCPA000030     TEXTURE : C     -   Silty Clay Loam            
 WATER BALANCE  : NOT SIMULATED ; NO H2O-STRESS                                 
 IRRIGATION     :                                                               
 NITROGEN BAL.  : NOT SIMULATED ; NO N-STRESS                                   
 N-FERTILIZER   :                                                               
 RESIDUE/MANURE :                                                               
 ENVIRONM. OPT. : DAYL=    0.00  SRAD=    0.00  TMAX=    0.00  TMIN=    0.00    
                  RAIN=    0.00  CO2 =    0.00  DEW =    0.00  WIND=    0.00    
 SIMULATION OPT : WATER   :N  NITROGEN:N  N-FIX:N  PHOSPH :N  PESTS  :N         
                  PHOTO   :L  ET      :R  INFIL:S  HYDROL :R  SOM    :G         
                  CO2 347ppm  NSWIT   :1  EVAP :S  SOIL   :2  STEMP  :D         
 MANAGEMENT OPT : PLANTING:A  IRRIG   :A  FERT :D  RESIDUE:N  HARVEST:M         
                  WEATHER :M  TILLAGE :N                                        
                                                                                
*SUMMARY OF SOIL AND GENETIC INPUT PARAMETERS                                   
                                                                                
 Dry bean   CULTIVAR :000008-Jatu Rong          ECOTYPE :ANDIND                 
 CSDVAR :12.17  PPSEN  : 0.05  EMG-FLW:25.00  FLW-FSD: 9.00  FSD-PHM : 11.00    
 WTPSD  :0.600  SDPDVR : 3.50  SDFDUR :15.00  PODDUR :10.00  XFRUIT  :  1.00    
 THRESH : 78.0  SDPRO  :0.235  SDLIP   : 0.030                                  


*SIMULATED CROP AND SOIL STATUS AT MAIN DEVELOPMENT STAGES

 RUN NO.     7     SIM                     

        CROP GROWTH     BIOMASS         LEAF   CROP N     STRESS      STRESS                                           
   DATE  AGE STAGE        kg/ha    LAI   NUM  kg/ha  %   H2O  Nitr Phos1 Phos2  RSTG                                   
 ------  --- ----------   -----  -----  ----  ---  ---  ----  ----  ----  ----  ----                                   
  2 APR    0 Start Sim        0   0.00   0.0    0  0.0  0.00  0.00  0.00  0.00     0
 16 APR    0 Sowing           0   0.00   0.0    0  0.0  0.00  0.00  0.00  0.00     0
 21 APR    5 Emergence       44   0.08   0.2    1  3.4  0.00  0.00  0.00  0.00     0
 21 APR    5 End Juven.      44   0.08   0.2    1  3.4  0.00  0.00  0.00  0.00     0
 24 APR    8 Unifoliate      48   0.09   1.1    2  3.3  0.00  0.66  0.00  0.00     0
 26 APR   10 Flower Ind      55   0.10   1.7    2  3.2  0.00  0.44  0.00  0.00     0
 17 MAY   31 First Flwr    1020   2.49   8.0   33  3.2  0.00  0.01  0.00  0.00     1
 20 MAY   34 First Pod     1393   3.09   8.9   43  3.1  0.00  0.00  0.00  0.00     3
 27 MAY   41 First Seed    2458   3.76  11.0   73  3.0  0.00  0.00  0.00  0.00     5
 29 MAY   43 End Msnode    2765   3.77  11.6   81  2.9  0.00  0.00  0.00  0.00     5
  3 JUN   48 End Pod       3481   3.49  11.6  101  2.9  0.00  0.00  0.00  0.00     5
  6 JUN   51 End Leaf      3879   3.24  11.6  111  2.9  0.00  0.00  0.00  0.00     5
  9 JUN   54 Phys. Mat     4285   2.96  11.6  120  2.8  0.00  0.00  0.00  0.00     7
 18 JUN   63 Harv. Mat     3924   0.20  11.6  109  2.8  0.00  0.00  0.00  0.00     8
 18 JUN   63 Harvest       3924   0.20  11.6  109  2.8  0.00  0.00  0.00  0.00     8


*MAIN GROWTH AND DEVELOPMENT VARIABLES

@     VARIABLE                                         SIMULATED     MEASURED
      --------                                         ---------     --------
      Anthesis day (dap)                                      31          -99
      First pod day (dap)                                     34          -99
      First seed day (dap)                                    41          -99
      Physiological maturity day (dap)                        54          -99
      Yield at harvest maturity (kg [dm]/ha)                2107          -99
      Pod/Ear/Panicle weight at maturity (kg [dm]/ha)       3004          -99
      Number at maturity (no/m2)                             578          -99
      Unit wt at maturity (g [dm]/unit)                   0.3646          -99
      Number at maturity (no/unit)                          3.50          -99
      Tops weight at maturity (kg [dm]/ha)                  3924          -99
      By-product produced (stalk) at maturity (kg[dm]/ha    1820          -99
      Leaf area index, maximum                              3.77          -99
      Harvest index at maturity                            0.537          -99
      Threshing % at maturity                              70.13          -99
      Grain N at maturity (kg/ha)                             79          -99
      Tops N at maturity (kg/ha)                             109          -99
      Stem N at maturity (kg/ha)                              10          -99
      Grain N at maturity (%)                               3.74          -99
      Tops weight at anthesis (kg [dm]/ha)                  1020          -99
      Tops N at anthesis (kg/ha)                              33          -99
      Leaf number per stem at maturity                     11.63          -99
      Grain oil at maturity (%)                             2.88          -99
      Canopy height (m)                                     1.01          -99
      Harvest maturity day (dap)                              63          -99
      Emergence day (dap)                                      5          -99


*ENVIRONMENTAL AND STRESS FACTORS

 |-----Development Phase------|--------------------------------------Environment--------------------------------------|-----------------Stress-----------------|
                              |---------------Average--------------|-----Cumulative-----|--------Count of days--------|          (0=Min, 1=Max Stress)         |
                         Time  Temp  Temp  Temp Solar Photop                Evapo    Pot TMIN TMIN TMAX TMAX TMAX RAIN|----Water----|---Nitrogen--|-Phosphorus-|
                         Span   Max   Min  Mean   Rad  [day]    CO2   Rain  Trans     ET   <    <    >    >    >    >   Photo         Photo         Photo
                         days    øC    øC    øC MJ/m2     hr    ppm     mm     mm     mm  0øC  2øC 30øC 32øC 34øC  0mm  synth Growth  synth Growth  synth Growth
----------------------------------------------------------------------------------------------------------------------------------------------------------------
 Emergence -First Flower   26  30.5  19.4  25.0  19.4  12.13  346.8   66.8    0.0    0.0    0    0   17    4    0   15  0.000  0.000  0.000  0.118  0.000  0.000
 First Flower-First Seed   10  31.3  19.1  25.2  19.9  12.18  346.9   52.1    0.0    0.0    0    0   10    1    0    6  0.000  0.000  0.000  0.000  0.000  0.000
 First Seed - Phys. Mat.   13  28.4  18.7  23.5  17.4  12.19  346.9   94.5    0.0    0.0    0    0    3    0    0    6  0.000  0.000  0.000  0.000  0.000  0.000
 Emergence  - Phys. Mat.   49  30.1  19.2  24.6  19.0  12.16  346.9  213.4    0.0    0.0    0    0   30    5    0   27  0.000  0.000  0.000  0.063  0.000  0.000


 Planting to Harvest       77  29.6  19.2  24.4  18.6  12.14  346.9  310.1    0.0    0.0    0    0   37    5    0   40  0.000  0.000  0.000  0.040  0.000  0.000
----------------------------------------------------------------------------------------------------------------------------------------------------------------

--------------------------------------------------------------------------------------------------------------

                  Dry bean YIELD :     2107 kg/ha    [Dry weight] 

**************************************************************************************************************

*DSSAT Cropping System Model Ver. 4.6.1.000 -release      JUL 11, 2017; 16:24:55
                                                                                
*RUN   8        : SIM                       CRGRO046 8\000008    1              
 MODEL          : CRGRO046 - Dry bean                                           
 EXPERIMENT     : 8\000008 BN PALMIRA_ANALISIS SENSIBILIDAD                     
 DATA PATH      : D:\B\0\00000                                                  
 TREATMENT  1   : SIM                       CRGRO046                            
                                                                                
                                                                                
 CROP           : Dry bean         CULTIVAR : Jatu Rong        ECOTYPE :ANDIND  
 STARTING DATE  : APR  2 1987                                                   
 PLANTING DATE  : APR 16 1987        PLANTS/m2 : 26.6     ROW SPACING :  60.cm  
 WEATHER        : PALM8034                                                      
 SOIL           : CCPA000030     TEXTURE : C     -   Silty Clay Loam            
 WATER BALANCE  : NOT SIMULATED ; NO H2O-STRESS                                 
 IRRIGATION     :                                                               
 NITROGEN BAL.  : NOT SIMULATED ; NO N-STRESS                                   
 N-FERTILIZER   :                                                               
 RESIDUE/MANURE :                                                               
 ENVIRONM. OPT. : DAYL=    0.00  SRAD=    0.00  TMAX=    0.00  TMIN=    0.00    
                  RAIN=    0.00  CO2 =    0.00  DEW =    0.00  WIND=    0.00    
 SIMULATION OPT : WATER   :N  NITROGEN:N  N-FIX:N  PHOSPH :N  PESTS  :N         
                  PHOTO   :L  ET      :R  INFIL:S  HYDROL :R  SOM    :G         
                  CO2 348ppm  NSWIT   :1  EVAP :S  SOIL   :2  STEMP  :D         
 MANAGEMENT OPT : PLANTING:A  IRRIG   :A  FERT :D  RESIDUE:N  HARVEST:M         
                  WEATHER :M  TILLAGE :N                                        
                                                                                
*SUMMARY OF SOIL AND GENETIC INPUT PARAMETERS                                   
                                                                                
 Dry bean   CULTIVAR :000008-Jatu Rong          ECOTYPE :ANDIND                 
 CSDVAR :12.17  PPSEN  : 0.05  EMG-FLW:25.00  FLW-FSD: 9.00  FSD-PHM : 11.00    
 WTPSD  :0.600  SDPDVR : 3.50  SDFDUR :15.00  PODDUR :10.00  XFRUIT  :  1.00    
 THRESH : 78.0  SDPRO  :0.235  SDLIP   : 0.030                                  


*SIMULATED CROP AND SOIL STATUS AT MAIN DEVELOPMENT STAGES

 RUN NO.     8     SIM                     

        CROP GROWTH     BIOMASS         LEAF   CROP N     STRESS      STRESS                                           
   DATE  AGE STAGE        kg/ha    LAI   NUM  kg/ha  %   H2O  Nitr Phos1 Phos2  RSTG                                   
 ------  --- ----------   -----  -----  ----  ---  ---  ----  ----  ----  ----  ----                                   
  2 APR    0 Start Sim        0   0.00   0.0    0  0.0  0.00  0.00  0.00  0.00     0
 16 APR    0 Sowing           0   0.00   0.0    0  0.0  0.00  0.00  0.00  0.00     0
 21 APR    5 Emergence       44   0.08   0.2    1  3.4  0.00  0.00  0.00  0.00     0
 21 APR    5 End Juven.      44   0.08   0.2    1  3.4  0.00  0.00  0.00  0.00     0
 24 APR    8 Unifoliate      49   0.09   1.1    2  3.3  0.00  0.65  0.00  0.00     0
 26 APR   10 Flower Ind      56   0.10   1.7    2  3.2  0.00  0.43  0.00  0.00     0
 18 MAY   32 First Flwr    1175   2.76   8.3   37  3.2  0.00  0.01  0.00  0.00     1
 20 MAY   34 First Pod     1435   3.18   8.9   45  3.1  0.00  0.00  0.00  0.00     3
 27 MAY   41 First Seed    2522   3.93  11.0   74  2.9  0.00  0.00  0.00  0.00     5
 29 MAY   43 End Msnode    2851   3.96  11.6   83  2.9  0.00  0.00  0.00  0.00     5
  3 JUN   48 End Pod       3586   3.69  11.6  102  2.8  0.00  0.00  0.00  0.00     5
  6 JUN   51 End Leaf      3984   3.40  11.6  111  2.8  0.00  0.00  0.00  0.00     5
  8 JUN   53 Phys. Mat     4263   3.19  11.6  117  2.7  0.00  0.00  0.00  0.00     7
 17 JUN   62 Harv. Mat     3831   0.22  11.6  103  2.7  0.00  0.00  0.00  0.00     8
 17 JUN   62 Harvest       3831   0.22  11.6  103  2.7  0.00  0.00  0.00  0.00     8


*MAIN GROWTH AND DEVELOPMENT VARIABLES

@     VARIABLE                                         SIMULATED     MEASURED
      --------                                         ---------     --------
      Anthesis day (dap)                                      32          -99
      First pod day (dap)                                     34          -99
      First seed day (dap)                                    41          -99
      Physiological maturity day (dap)                        53          -99
      Yield at harvest maturity (kg [dm]/ha)                1875          -99
      Pod/Ear/Panicle weight at maturity (kg [dm]/ha)       2768          -99
      Number at maturity (no/m2)                             570          -99
      Unit wt at maturity (g [dm]/unit)                   0.3293          -99
      Number at maturity (no/unit)                          3.50          -99
      Tops weight at maturity (kg [dm]/ha)                  3831          -99
      By-product produced (stalk) at maturity (kg[dm]/ha    1960          -99
      Leaf area index, maximum                              3.96          -99
      Harvest index at maturity                            0.489          -99
      Threshing % at maturity                              67.76          -99
      Grain N at maturity (kg/ha)                             71          -99
      Tops N at maturity (kg/ha)                             103          -99
      Stem N at maturity (kg/ha)                              12          -99
      Grain N at maturity (%)                               3.78          -99
      Tops weight at anthesis (kg [dm]/ha)                  1175          -99
      Tops N at anthesis (kg/ha)                              37          -99
      Leaf number per stem at maturity                     11.63          -99
      Grain oil at maturity (%)                             2.91          -99
      Canopy height (m)                                     1.01          -99
      Harvest maturity day (dap)                              62          -99
      Emergence day (dap)                                      5          -99


*ENVIRONMENTAL AND STRESS FACTORS

 |-----Development Phase------|--------------------------------------Environment--------------------------------------|-----------------Stress-----------------|
                              |---------------Average--------------|-----Cumulative-----|--------Count of days--------|          (0=Min, 1=Max Stress)         |
                         Time  Temp  Temp  Temp Solar Photop                Evapo    Pot TMIN TMIN TMAX TMAX TMAX RAIN|----Water----|---Nitrogen--|-Phosphorus-|
                         Span   Max   Min  Mean   Rad  [day]    CO2   Rain  Trans     ET   <    <    >    >    >    >   Photo         Photo         Photo
                         days    øC    øC    øC MJ/m2     hr    ppm     mm     mm     mm  0øC  2øC 30øC 32øC 34øC  0mm  synth Growth  synth Growth  synth Growth
----------------------------------------------------------------------------------------------------------------------------------------------------------------
 Emergence -First Flower   27  31.1  18.9  25.0  20.3  12.13  348.5  148.6    0.0    0.0    0    0   21    7    1   17  0.000  0.000  0.000  0.109  0.000  0.000
 First Flower-First Seed    9  31.8  19.6  25.7  19.9  12.18  348.6   66.5    0.0    0.0    0    0    9    3    0    5  0.000  0.000  0.000  0.000  0.000  0.000
 First Seed - Phys. Mat.   12  30.0  19.7  24.9  17.9  12.19  348.6   16.8    0.0    0.0    0    0    4    3    0    1  0.000  0.000  0.000  0.000  0.000  0.000
 Emergence  - Phys. Mat.   48  31.0  19.2  25.1  19.6  12.16  348.6  231.9    0.0    0.0    0    0   34   13    1   23  0.000  0.000  0.000  0.061  0.000  0.000


 Planting to Harvest       76  31.1  19.4  25.2  19.8  12.14  348.5  239.2    0.0    0.0    0    0   57   20    1   29  0.000  0.000  0.000  0.039  0.000  0.000
----------------------------------------------------------------------------------------------------------------------------------------------------------------

--------------------------------------------------------------------------------------------------------------

                  Dry bean YIELD :     1875 kg/ha    [Dry weight] 

**************************************************************************************************************

*DSSAT Cropping System Model Ver. 4.6.1.000 -release      JUL 11, 2017; 16:24:55
                                                                                
*RUN   9        : SIM                       CRGRO046 8\000008    1              
 MODEL          : CRGRO046 - Dry bean                                           
 EXPERIMENT     : 8\000008 BN PALMIRA_ANALISIS SENSIBILIDAD                     
 DATA PATH      : D:\B\0\00000                                                  
 TREATMENT  1   : SIM                       CRGRO046                            
                                                                                
                                                                                
 CROP           : Dry bean         CULTIVAR : Jatu Rong        ECOTYPE :ANDIND  
 STARTING DATE  : APR  1 1988                                                   
 PLANTING DATE  : APR 15 1988        PLANTS/m2 : 26.6     ROW SPACING :  60.cm  
 WEATHER        : PALM8034                                                      
 SOIL           : CCPA000030     TEXTURE : C     -   Silty Clay Loam            
 WATER BALANCE  : NOT SIMULATED ; NO H2O-STRESS                                 
 IRRIGATION     :                                                               
 NITROGEN BAL.  : NOT SIMULATED ; NO N-STRESS                                   
 N-FERTILIZER   :                                                               
 RESIDUE/MANURE :                                                               
 ENVIRONM. OPT. : DAYL=    0.00  SRAD=    0.00  TMAX=    0.00  TMIN=    0.00    
                  RAIN=    0.00  CO2 =    0.00  DEW =    0.00  WIND=    0.00    
 SIMULATION OPT : WATER   :N  NITROGEN:N  N-FIX:N  PHOSPH :N  PESTS  :N         
                  PHOTO   :L  ET      :R  INFIL:S  HYDROL :R  SOM    :G         
                  CO2 351ppm  NSWIT   :1  EVAP :S  SOIL   :2  STEMP  :D         
 MANAGEMENT OPT : PLANTING:A  IRRIG   :A  FERT :D  RESIDUE:N  HARVEST:M         
                  WEATHER :M  TILLAGE :N                                        
                                                                                
*SUMMARY OF SOIL AND GENETIC INPUT PARAMETERS                                   
                                                                                
 Dry bean   CULTIVAR :000008-Jatu Rong          ECOTYPE :ANDIND                 
 CSDVAR :12.17  PPSEN  : 0.05  EMG-FLW:25.00  FLW-FSD: 9.00  FSD-PHM : 11.00    
 WTPSD  :0.600  SDPDVR : 3.50  SDFDUR :15.00  PODDUR :10.00  XFRUIT  :  1.00    
 THRESH : 78.0  SDPRO  :0.235  SDLIP   : 0.030                                  


*SIMULATED CROP AND SOIL STATUS AT MAIN DEVELOPMENT STAGES

 RUN NO.     9     SIM                     

        CROP GROWTH     BIOMASS         LEAF   CROP N     STRESS      STRESS                                           
   DATE  AGE STAGE        kg/ha    LAI   NUM  kg/ha  %   H2O  Nitr Phos1 Phos2  RSTG                                   
 ------  --- ----------   -----  -----  ----  ---  ---  ----  ----  ----  ----  ----                                   
  1 APR    0 Start Sim        0   0.00   0.0    0  0.0  0.00  0.00  0.00  0.00     0
 15 APR    0 Sowing           0   0.00   0.0    0  0.0  0.00  0.00  0.00  0.00     0
 20 APR    5 Emergence       44   0.08   0.2    1  3.4  0.00  0.00  0.00  0.00     0
 20 APR    5 End Juven.      44   0.08   0.2    1  3.4  0.00  0.00  0.00  0.00     0
 23 APR    8 Unifoliate      48   0.09   1.0    2  3.3  0.00  0.65  0.00  0.00     0
 25 APR   10 Flower Ind      56   0.10   1.6    2  3.2  0.00  0.41  0.00  0.00     0
 17 MAY   32 First Flwr    1068   2.63   8.2   34  3.2  0.00  0.01  0.00  0.00     1
 19 MAY   34 First Pod     1306   3.04   8.8   41  3.1  0.00  0.00  0.00  0.00     3
 26 MAY   41 First Seed    2310   3.73  10.8   68  3.0  0.00  0.00  0.00  0.00     5
 29 MAY   44 End Msnode    2767   3.75  11.7   80  2.9  0.00  0.00  0.00  0.00     5
  2 JUN   48 End Pod       3370   3.55  11.7   97  2.9  0.00  0.00  0.00  0.00     5
  5 JUN   51 End Leaf      3785   3.28  11.7  106  2.8  0.00  0.00  0.00  0.00     5
  8 JUN   54 Phys. Mat     4191   2.98  11.7  115  2.7  0.00  0.00  0.00  0.00     7
 17 JUN   63 Harv. Mat     3823   0.20  11.7  103  2.7  0.00  0.00  0.00  0.00     8
 17 JUN   63 Harvest       3823   0.20  11.7  103  2.7  0.00  0.00  0.00  0.00     8


*MAIN GROWTH AND DEVELOPMENT VARIABLES

@     VARIABLE                                         SIMULATED     MEASURED
      --------                                         ---------     --------
      Anthesis day (dap)                                      32          -99
      First pod day (dap)                                     34          -99
      First seed day (dap)                                    41          -99
      Physiological maturity day (dap)                        54          -99
      Yield at harvest maturity (kg [dm]/ha)                1859          -99
      Pod/Ear/Panicle weight at maturity (kg [dm]/ha)       2816          -99
      Number at maturity (no/m2)                             616          -99
      Unit wt at maturity (g [dm]/unit)                   0.3020          -99
      Number at maturity (no/unit)                          3.50          -99
      Tops weight at maturity (kg [dm]/ha)                  3823          -99
      By-product produced (stalk) at maturity (kg[dm]/ha    1960          -99
      Leaf area index, maximum                              3.76          -99
      Harvest index at maturity                            0.486          -99
      Threshing % at maturity                              66.01          -99
      Grain N at maturity (kg/ha)                             71          -99
      Tops N at maturity (kg/ha)                             103          -99
      Stem N at maturity (kg/ha)                              11          -99
      Grain N at maturity (%)                               3.81          -99
      Tops weight at anthesis (kg [dm]/ha)                  1068          -99
      Tops N at anthesis (kg/ha)                              34          -99
      Leaf number per stem at maturity                     11.68          -99
      Grain oil at maturity (%)                             2.88          -99
      Canopy height (m)                                     1.02          -99
      Harvest maturity day (dap)                              63          -99
      Emergence day (dap)                                      5          -99


*ENVIRONMENTAL AND STRESS FACTORS

 |-----Development Phase------|--------------------------------------Environment--------------------------------------|-----------------Stress-----------------|
                              |---------------Average--------------|-----Cumulative-----|--------Count of days--------|          (0=Min, 1=Max Stress)         |
                         Time  Temp  Temp  Temp Solar Photop                Evapo    Pot TMIN TMIN TMAX TMAX TMAX RAIN|----Water----|---Nitrogen--|-Phosphorus-|
                         Span   Max   Min  Mean   Rad  [day]    CO2   Rain  Trans     ET   <    <    >    >    >    >   Photo         Photo         Photo
                         days    øC    øC    øC MJ/m2     hr    ppm     mm     mm     mm  0øC  2øC 30øC 32øC 34øC  0mm  synth Growth  synth Growth  synth Growth
----------------------------------------------------------------------------------------------------------------------------------------------------------------
 Emergence -First Flower   27  29.3  19.3  24.3  18.3  12.13  351.1   85.1    0.0    0.0    0    0    8    0    0   11  0.000  0.000  0.000  0.113  0.000  0.000
 First Flower-First Seed    9  29.0  19.2  24.1  17.7  12.18  351.2    1.6    0.0    0.0    0    0    2    0    0    3  0.000  0.000  0.000  0.000  0.000  0.000
 First Seed - Phys. Mat.   13  30.8  18.7  24.7  19.5  12.19  351.2  115.9    0.0    0.0    0    0    8    5    1    6  0.000  0.000  0.000  0.000  0.000  0.000
 Emergence  - Phys. Mat.   49  29.6  19.1  24.4  18.5  12.16  351.1  202.6    0.0    0.0    0    0   18    5    1   20  0.000  0.000  0.000  0.062  0.000  0.000


 Planting to Harvest       77  29.6  19.2  24.4  18.5  12.14  351.1  366.9    0.0    0.0    0    0   32    9    1   35  0.000  0.000  0.000  0.040  0.000  0.000
----------------------------------------------------------------------------------------------------------------------------------------------------------------

--------------------------------------------------------------------------------------------------------------

                  Dry bean YIELD :     1859 kg/ha    [Dry weight] 

**************************************************************************************************************

*DSSAT Cropping System Model Ver. 4.6.1.000 -release      JUL 11, 2017; 16:24:55
                                                                                
*RUN  10        : SIM                       CRGRO046 8\000008    1              
 MODEL          : CRGRO046 - Dry bean                                           
 EXPERIMENT     : 8\000008 BN PALMIRA_ANALISIS SENSIBILIDAD                     
 DATA PATH      : D:\B\0\00000                                                  
 TREATMENT  1   : SIM                       CRGRO046                            
[...]
      Emergence day (dap)                                      5          -99


*ENVIRONMENTAL AND STRESS FACTORS

 |-----Development Phase------|--------------------------------------Environment--------------------------------------|-----------------Stress-----------------|
                              |---------------Average--------------|-----Cumulative-----|--------Count of days--------|          (0=Min, 1=Max Stress)         |
                         Time  Temp  Temp  Temp Solar Photop                Evapo    Pot TMIN TMIN TMAX TMAX TMAX RAIN|----Water----|---Nitrogen--|-Phosphorus-|
                         Span   Max   Min  Mean   Rad  [day]    CO2   Rain  Trans     ET   <    <    >    >    >    >   Photo         Photo         Photo
                         days    øC    øC    øC MJ/m2     hr    ppm     mm     mm     mm  0øC  2øC 30øC 32øC 34øC  0mm  synth Growth  synth Growth  synth Growth
----------------------------------------------------------------------------------------------------------------------------------------------------------------
 Emergence -First Flower   27  30.4  19.0  24.7  19.7  12.13  387.0   52.7    0.0    0.0    0    0   20    2    0   15  0.000  0.000  0.000  0.104  0.000  0.000
 First Flower-First Seed    9  30.8  18.9  24.9  19.7  12.18  387.1    0.0    0.0    0.0    0    0    8    0    0    0  0.000  0.000  0.000  0.000  0.000  0.000
 First Seed - Phys. Mat.   13  30.6  19.2  24.9  18.9  12.19  387.1   40.5    0.0    0.0    0    0    7    3    0    6  0.000  0.000  0.000  0.000  0.000  0.000
 Emergence  - Phys. Mat.   49  30.6  19.0  24.8  19.5  12.16  387.0   93.2    0.0    0.0    0    0   35    5    0   21  0.000  0.000  0.000  0.057  0.000  0.000


 Planting to Harvest       77  30.1  19.2  24.6  19.1  12.14  387.0  106.2    0.0    0.0    0    0   46    5    0   33  0.000  0.000  0.000  0.037  0.000  0.000
----------------------------------------------------------------------------------------------------------------------------------------------------------------

--------------------------------------------------------------------------------------------------------------

                  Dry bean YIELD :     2035 kg/ha    [Dry weight] 

**************************************************************************************************************

*DSSAT Cropping System Model Ver. 4.6.1.000 -release      JUL 11, 2017; 16:24:55
                                                                                
*RUN  31        : SIM                       CRGRO046 8\000008    1              
 MODEL          : CRGRO046 - Dry bean                                           
 EXPERIMENT     : 8\000008 BN PALMIRA_ANALISIS SENSIBILIDAD                     
 DATA PATH      : D:\B\0\00000                                                  
 TREATMENT  1   : SIM                       CRGRO046                            
                                                                                
                                                                                
 CROP           : Dry bean         CULTIVAR : Jatu Rong        ECOTYPE :ANDIND  
 STARTING DATE  : APR  2 2010                                                   
 PLANTING DATE  : APR 16 2010        PLANTS/m2 : 26.6     ROW SPACING :  60.cm  
 WEATHER        : PALM8034                                                      
 SOIL           : CCPA000030     TEXTURE : C     -   Silty Clay Loam            
 WATER BALANCE  : NOT SIMULATED ; NO H2O-STRESS                                 
 IRRIGATION     :                                                               
 NITROGEN BAL.  : NOT SIMULATED ; NO N-STRESS                                   
 N-FERTILIZER   :                                                               
 RESIDUE/MANURE :                                                               
 ENVIRONM. OPT. : DAYL=    0.00  SRAD=    0.00  TMAX=    0.00  TMIN=    0.00    
                  RAIN=    0.00  CO2 =    0.00  DEW =    0.00  WIND=    0.00    
 SIMULATION OPT : WATER   :N  NITROGEN:N  N-FIX:N  PHOSPH :N  PESTS  :N         
                  PHOTO   :L  ET      :R  INFIL:S  HYDROL :R  SOM    :G         
                  CO2 389ppm  NSWIT   :1  EVAP :S  SOIL   :2  STEMP  :D         
 MANAGEMENT OPT : PLANTING:A  IRRIG   :A  FERT :D  RESIDUE:N  HARVEST:M         
                  WEATHER :M  TILLAGE :N                                        
                                                                                
*SUMMARY OF SOIL AND GENETIC INPUT PARAMETERS                                   
                                                                                
 Dry bean   CULTIVAR :000008-Jatu Rong          ECOTYPE :ANDIND                 
 CSDVAR :12.17  PPSEN  : 0.05  EMG-FLW:25.00  FLW-FSD: 9.00  FSD-PHM : 11.00    
 WTPSD  :0.600  SDPDVR : 3.50  SDFDUR :15.00  PODDUR :10.00  XFRUIT  :  1.00    
 THRESH : 78.0  SDPRO  :0.235  SDLIP   : 0.030                                  


*SIMULATED CROP AND SOIL STATUS AT MAIN DEVELOPMENT STAGES

 RUN NO.    31     SIM                     

        CROP GROWTH     BIOMASS         LEAF   CROP N     STRESS      STRESS                                           
   DATE  AGE STAGE        kg/ha    LAI   NUM  kg/ha  %   H2O  Nitr Phos1 Phos2  RSTG                                   
 ------  --- ----------   -----  -----  ----  ---  ---  ----  ----  ----  ----  ----                                   
  2 APR    0 Start Sim        0   0.00   0.0    0  0.0  0.00  0.00  0.00  0.00     0
 16 APR    0 Sowing           0   0.00   0.0    0  0.0  0.00  0.00  0.00  0.00     0
 21 APR    5 Emergence       44   0.08   0.2    1  3.4  0.00  0.00  0.00  0.00     0
 21 APR    5 End Juven.      44   0.08   0.2    1  3.4  0.00  0.00  0.00  0.00     0
 24 APR    8 Unifoliate      49   0.09   1.1    2  3.3  0.00  0.66  0.00  0.00     0
 26 APR   10 Flower Ind      55   0.10   1.7    2  3.1  0.00  0.45  0.00  0.00     0
 17 MAY   31 First Flwr    1088   2.74   8.1   34  3.2  0.00  0.00  0.00  0.00     1
 20 MAY   34 First Pod     1486   3.39   9.1   46  3.1  0.00  0.00  0.00  0.00     3
 27 MAY   41 First Seed    2490   4.01  11.1   73  2.9  0.00  0.00  0.00  0.00     5
 29 MAY   43 End Msnode    2834   4.01  11.7   82  2.9  0.00  0.00  0.00  0.00     5
  2 JUN   47 End Pod       3422   3.77  11.7   99  2.9  0.00  0.00  0.00  0.00     5
  5 JUN   50 End Leaf      3853   3.50  11.7  109  2.8  0.00  0.00  0.00  0.00     5
  8 JUN   53 Phys. Mat     4296   3.18  11.7  119  2.8  0.00  0.00  0.00  0.00     7
 17 JUN   62 Harv. Mat     3945   0.22  11.7  108  2.7  0.00  0.00  0.00  0.00     8
 17 JUN   62 Harvest       3945   0.22  11.7  108  2.7  0.00  0.00  0.00  0.00     8


*MAIN GROWTH AND DEVELOPMENT VARIABLES

@     VARIABLE                                         SIMULATED     MEASURED
      --------                                         ---------     --------
      Anthesis day (dap)                                      31          -99
      First pod day (dap)                                     34          -99
      First seed day (dap)                                    41          -99
      Physiological maturity day (dap)                        53          -99
      Yield at harvest maturity (kg [dm]/ha)                2008          -99
      Pod/Ear/Panicle weight at maturity (kg [dm]/ha)       2988          -99
      Number at maturity (no/m2)                             623          -99
      Unit wt at maturity (g [dm]/unit)                   0.3222          -99
      Number at maturity (no/unit)                          3.50          -99
      Tops weight at maturity (kg [dm]/ha)                  3945          -99
      By-product produced (stalk) at maturity (kg[dm]/ha    1940          -99
      Leaf area index, maximum                              4.02          -99
      Harvest index at maturity                            0.509          -99
      Threshing % at maturity                              67.22          -99
      Grain N at maturity (kg/ha)                             76          -99
      Tops N at maturity (kg/ha)                             108          -99
      Stem N at maturity (kg/ha)                              11          -99
      Grain N at maturity (%)                               3.77          -99
      Tops weight at anthesis (kg [dm]/ha)                  1088          -99
      Tops N at anthesis (kg/ha)                              34          -99
      Leaf number per stem at maturity                     11.73          -99
      Grain oil at maturity (%)                             2.90          -99
      Canopy height (m)                                     1.05          -99
      Harvest maturity day (dap)                              62          -99
      Emergence day (dap)                                      5          -99


*ENVIRONMENTAL AND STRESS FACTORS

 |-----Development Phase------|--------------------------------------Environment--------------------------------------|-----------------Stress-----------------|
                              |---------------Average--------------|-----Cumulative-----|--------Count of days--------|          (0=Min, 1=Max Stress)         |
                         Time  Temp  Temp  Temp Solar Photop                Evapo    Pot TMIN TMIN TMAX TMAX TMAX RAIN|----Water----|---Nitrogen--|-Phosphorus-|
                         Span   Max   Min  Mean   Rad  [day]    CO2   Rain  Trans     ET   <    <    >    >    >    >   Photo         Photo         Photo
                         days    øC    øC    øC MJ/m2     hr    ppm     mm     mm     mm  0øC  2øC 30øC 32øC 34øC  0mm  synth Growth  synth Growth  synth Growth
----------------------------------------------------------------------------------------------------------------------------------------------------------------
 Emergence -First Flower   26  29.9  20.4  25.2  17.9  12.13  389.4  124.3    0.0    0.0    0    0   15    1    0   11  0.000  0.000  0.000  0.115  0.000  0.000
 First Flower-First Seed   10  28.5  20.3  24.4  16.1  12.18  389.6   50.5    0.0    0.0    0    0    5    0    0    7  0.000  0.000  0.000  0.000  0.000  0.000
 First Seed - Phys. Mat.   12  29.2  19.4  24.3  17.4  12.19  389.6   40.1    0.0    0.0    0    0    6    0    0    4  0.000  0.000  0.000  0.000  0.000  0.000
 Emergence  - Phys. Mat.   48  29.4  20.1  24.8  17.4  12.16  389.5  214.9    0.0    0.0    0    0   26    1    0   22  0.000  0.000  0.000  0.062  0.000  0.000


 Planting to Harvest       76  29.4  19.9  24.7  17.8  12.14  389.5  371.5    0.0    0.0    0    0   38    3    0   40  0.000  0.000  0.000  0.039  0.000  0.000
----------------------------------------------------------------------------------------------------------------------------------------------------------------

--------------------------------------------------------------------------------------------------------------

                  Dry bean YIELD :     2008 kg/ha    [Dry weight] 

**************************************************************************************************************

*DSSAT Cropping System Model Ver. 4.6.1.000 -release      JUL 11, 2017; 16:24:55
                                                                                
*RUN  32        : SIM                       CRGRO046 8\000008    1              
 MODEL          : CRGRO046 - Dry bean                                           
 EXPERIMENT     : 8\000008 BN PALMIRA_ANALISIS SENSIBILIDAD                     
 DATA PATH      : D:\B\0\00000                                                  
 TREATMENT  1   : SIM                       CRGRO046                            
                                                                                
                                                                                
 CROP           : Dry bean         CULTIVAR : Jatu Rong        ECOTYPE :ANDIND  
 STARTING DATE  : APR  2 2011                                                   
 PLANTING DATE  : APR 16 2011        PLANTS/m2 : 26.6     ROW SPACING :  60.cm  
 WEATHER        : PALM8034                                                      
 SOIL           : CCPA000030     TEXTURE : C     -   Silty Clay Loam            
 WATER BALANCE  : NOT SIMULATED ; NO H2O-STRESS                                 
 IRRIGATION     :                                                               
 NITROGEN BAL.  : NOT SIMULATED ; NO N-STRESS                                   
 N-FERTILIZER   :                                                               
 RESIDUE/MANURE :                                                               
 ENVIRONM. OPT. : DAYL=    0.00  SRAD=    0.00  TMAX=    0.00  TMIN=    0.00    
                  RAIN=    0.00  CO2 =    0.00  DEW =    0.00  WIND=    0.00    
 SIMULATION OPT : WATER   :N  NITROGEN:N  N-FIX:N  PHOSPH :N  PESTS  :N         
                  PHOTO   :L  ET      :R  INFIL:S  HYDROL :R  SOM    :G         
                  CO2 391ppm  NSWIT   :1  EVAP :S  SOIL   :2  STEMP  :D         
 MANAGEMENT OPT : PLANTING:A  IRRIG   :A  FERT :D  RESIDUE:N  HARVEST:M         
                  WEATHER :M  TILLAGE :N                                        
                                                                                
*SUMMARY OF SOIL AND GENETIC INPUT PARAMETERS                                   
                                                                                
 Dry bean   CULTIVAR :000008-Jatu Rong          ECOTYPE :ANDIND                 
 CSDVAR :12.17  PPSEN  : 0.05  EMG-FLW:25.00  FLW-FSD: 9.00  FSD-PHM : 11.00    
 WTPSD  :0.600  SDPDVR : 3.50  SDFDUR :15.00  PODDUR :10.00  XFRUIT  :  1.00    
 THRESH : 78.0  SDPRO  :0.235  SDLIP   : 0.030                                  


*SIMULATED CROP AND SOIL STATUS AT MAIN DEVELOPMENT STAGES

 RUN NO.    32     SIM                     

        CROP GROWTH     BIOMASS         LEAF   CROP N     STRESS      STRESS                                           
   DATE  AGE STAGE        kg/ha    LAI   NUM  kg/ha  %   H2O  Nitr Phos1 Phos2  RSTG                                   
 ------  --- ----------   -----  -----  ----  ---  ---  ----  ----  ----  ----  ----                                   
  2 APR    0 Start Sim        0   0.00   0.0    0  0.0  0.00  0.00  0.00  0.00     0
 16 APR    0 Sowing           0   0.00   0.0    0  0.0  0.00  0.00  0.00  0.00     0
 21 APR    5 Emergence       44   0.08   0.2    1  3.4  0.00  0.00  0.00  0.00     0
 21 APR    5 End Juven.      44   0.08   0.2    1  3.4  0.00  0.00  0.00  0.00     0
 24 APR    8 Unifoliate      49   0.09   1.1    2  3.3  0.00  0.64  0.00  0.00     0
 26 APR   10 Flower Ind      57   0.10   1.7    2  3.1  0.00  0.39  0.00  0.00     0
 17 MAY   31 First Flwr    1083   2.70   8.0   34  3.2  0.00  0.01  0.00  0.00     1
 20 MAY   34 First Pod     1485   3.34   8.9   46  3.1  0.00  0.00  0.00  0.00     3
 27 MAY   41 First Seed    2628   4.06  11.0   78  3.0  0.00  0.00  0.00  0.00     5
 29 MAY   43 End Msnode    2968   4.07  11.6   87  2.9  0.00  0.00  0.00  0.00     5
  3 JUN   48 End Pod       3721   3.76  11.6  108  2.9  0.00  0.00  0.00  0.00     5
  6 JUN   51 End Leaf      4161   3.47  11.6  118  2.8  0.00  0.00  0.00  0.00     5
  9 JUN   54 Phys. Mat     4610   3.15  11.6  129  2.8  0.00  0.00  0.00  0.00     7
 18 JUN   63 Harv. Mat     4272   0.22  11.6  120  2.8  0.00  0.00  0.00  0.00     8
 18 JUN   63 Harvest       4272   0.22  11.6  120  2.8  0.00  0.00  0.00  0.00     8


*MAIN GROWTH AND DEVELOPMENT VARIABLES

@     VARIABLE                                         SIMULATED     MEASURED
      --------                                         ---------     --------
      Anthesis day (dap)                                      31          -99
      First pod day (dap)                                     34          -99
      First seed day (dap)                                    41          -99
      Physiological maturity day (dap)                        54          -99
      Yield at harvest maturity (kg [dm]/ha)                2271          -99
      Pod/Ear/Panicle weight at maturity (kg [dm]/ha)       3257          -99
      Number at maturity (no/m2)                             635          -99
      Unit wt at maturity (g [dm]/unit)                   0.3575          -99
      Number at maturity (no/unit)                          3.50          -99
      Tops weight at maturity (kg [dm]/ha)                  4272          -99
      By-product produced (stalk) at maturity (kg[dm]/ha    2000          -99
      Leaf area index, maximum                              4.07          -99
      Harvest index at maturity                            0.532          -99
      Threshing % at maturity                              69.74          -99
      Grain N at maturity (kg/ha)                             88          -99
      Tops N at maturity (kg/ha)                             120          -99
      Stem N at maturity (kg/ha)                              11          -99
      Grain N at maturity (%)                               3.87          -99
      Tops weight at anthesis (kg [dm]/ha)                  1083          -99
      Tops N at anthesis (kg/ha)                              34          -99
      Leaf number per stem at maturity                     11.56          -99
      Grain oil at maturity (%)                             2.76          -99
      Canopy height (m)                                     1.01          -99
      Harvest maturity day (dap)                              63          -99
      Emergence day (dap)                                      5          -99


*ENVIRONMENTAL AND STRESS FACTORS

 |-----Development Phase------|--------------------------------------Environment--------------------------------------|-----------------Stress-----------------|
                              |---------------Average--------------|-----Cumulative-----|--------Count of days--------|          (0=Min, 1=Max Stress)         |
                         Time  Temp  Temp  Temp Solar Photop                Evapo    Pot TMIN TMIN TMAX TMAX TMAX RAIN|----Water----|---Nitrogen--|-Phosphorus-|
                         Span   Max   Min  Mean   Rad  [day]    CO2   Rain  Trans     ET   <    <    >    >    >    >   Photo         Photo         Photo
                         days    øC    øC    øC MJ/m2     hr    ppm     mm     mm     mm  0øC  2øC 30øC 32øC 34øC  0mm  synth Growth  synth Growth  synth Growth
----------------------------------------------------------------------------------------------------------------------------------------------------------------
 Emergence -First Flower   26  30.0  19.5  24.8  18.8  12.13  391.2   84.3    0.0    0.0    0    0   13    1    0   15  0.000  0.000  0.000  0.110  0.000  0.000
 First Flower-First Seed   10  30.4  18.9  24.6  19.3  12.18  391.4    2.3    0.0    0.0    0    0    7    0    0    3  0.000  0.000  0.000  0.000  0.000  0.000
 First Seed - Phys. Mat.   13  29.6  19.5  24.6  17.7  12.19  391.4   23.3    0.0    0.0    0    0    7    0    0    5  0.000  0.000  0.000  0.000  0.000  0.000
 Emergence  - Phys. Mat.   49  29.9  19.4  24.7  18.6  12.16  391.3  109.9    0.0    0.0    0    0   27    1    0   23  0.000  0.000  0.000  0.058  0.000  0.000


 Planting to Harvest       77  29.7  19.4  24.6  18.5  12.14  391.3  271.9    0.0    0.0    0    0   37    4    0   43  0.000  0.000  0.000  0.037  0.000  0.000
----------------------------------------------------------------------------------------------------------------------------------------------------------------

--------------------------------------------------------------------------------------------------------------

                  Dry bean YIELD :     2271 kg/ha    [Dry weight] 

**************************************************************************************************************
