*GROWTH ASPECTS OUTPUT FILE

*DSSAT Cropping System Model Ver. 4.6.1.000 -release      JUL 11, 2017; 16:24:55
                                                                                
*RUN   1        : SIM                       CRGRO046 8\000008    1              
 MODEL          : CRGRO046 - Dry bean                                           
 EXPERIMENT     : 8\000008 BN PALMIRA_ANALISIS SENSIBILIDAD                     
 DATA PATH      : D:\B\0\00000                                                  
 TREATMENT  1   : SIM                       CRGRO046                            
  
!                                                                                                                                                                                                                                                    Root Dens. (cm/cm3) by soil depth (cm):
!                                                                                                                                                                                                                                                    0-5    5-15   15-25   25-35   35-50   50-65   65-80   80-99  99-122 122-209
@YEAR DOY   DAS   DAP   L#SD   GSTD   LAID   LWAD   SWAD   GWAD   RWAD   VWAD   CWAD   G#AD    GWGD   HIAD   PWAD   P#AD   WSPD   WSGD   NSTD  PST1A  PST2A   KSTD   EWSD    LN%D   SH%D   HIPD   PWDD   PWTD   SLAD   CHTD   CWID   NWAD   RDPD    RL1D    RL2D    RL3D    RL4D    RL5D    RL6D    RL7D    RL8D    RL9D   RL10D    SNW0C   SNW1C
 1980 106    15     0    0.0      0  0.000      0      0      0      0      0      0      0     0.0  0.000      0      0  0.000  0.000  0.000  0.000  0.000  0.000  0.000    0.00   0.00   0.00      0      0    0.0   0.00   0.00    0.0   0.00    0.00    0.00    0.00    0.00    0.00    0.00    0.00    0.00    0.00    0.00        0       0
 1980 107    16     1    0.0      0  0.000      0      0      0      0      0      0      0     0.0  0.000      0      0  0.000  0.000  0.000  0.000  0.000  0.000  0.000    0.00   0.00   0.00      0      0    0.0   0.00   0.00    0.0   0.00    0.00    0.00    0.00    0.00    0.00    0.00    0.00    0.00    0.00    0.00        0       0
 1980 108    17     2    0.0      0  0.000      0      0      0      0      0      0      0     0.0  0.000      0      0  0.000  0.000  0.000  0.000  0.000  0.000  0.000    0.00   0.00   0.00      0      0    0.0   0.00   0.00    0.0   0.00    0.00    0.00    0.00    0.00    0.00    0.00    0.00    0.00    0.00    0.00        0       0
 1980 109    18     3    0.0      0  0.000      0      0      0      0      0      0      0     0.0  0.000      0      0  0.000  0.000  0.000  0.000  0.000  0.000  0.000    0.00   0.00   0.00      0      0    0.0   0.00   0.00    0.0   0.00    0.00    0.00    0.00    0.00    0.00    0.00    0.00    0.00    0.00    0.00        0       0
 1980 110    19     4    0.0      0  0.000      0      0      0      0      0      0      0     0.0  0.000      0      0  0.000  0.000  0.000  0.000  0.000  0.000  0.000    0.00   0.00   0.00      0      0    0.0   0.00   0.00    0.0   0.00    0.00    0.00    0.00    0.00    0.00    0.00    0.00    0.00    0.00    0.00        0       0
 1980 111    20     5    0.2      0  0.079     31     13      0     43     44     44      0     0.0  0.000      0      0  0.000  0.000  0.000  0.000  0.000  0.000  0.000    3.84   0.00   0.00      0      0  256.8   0.04   0.03    0.0   0.27    0.15    0.15    0.15    0.00    0.00    0.00    0.00    0.00    0.00    0.00        0       1
 1980 112    21     6    0.5      0  0.082     31     14      0     50     45     45      0     0.0  0.000      0      0  0.000  0.000  0.646  0.000  0.000  0.000  0.000    3.78   0.00   0.00      0      0  261.8   0.05   0.03    0.0   0.29    0.18    0.18    0.17    0.01    0.00    0.00    0.00    0.00    0.00    0.00        0       2
 1980 113    22     7    0.8      0  0.085     32     15      0     59     47     47      0     0.0  0.000      0      0  0.000  0.000  0.737  0.000  0.000  0.000  0.000    3.72   0.00   0.00      0      0  265.6   0.07   0.04    0.0   0.32    0.21    0.21    0.20    0.02    0.00    0.00    0.00    0.00    0.00    0.00        0       3
 1980 114    23     8    1.1      0  0.088     33     16      0     67     49     49      0     0.0  0.000      0      0  0.000  0.000  0.546  0.000  0.000  0.000  0.000    3.71   0.00   0.00      0      0  271.5   0.08   0.05    0.0   0.34    0.24    0.24    0.21    0.03    0.00    0.00    0.00    0.00    0.00    0.00        0       4
 1980 115    24     9    1.4      0  0.092     33     18      0     74     51     51      0     0.0  0.000      0      0  0.000  0.000  0.519  0.000  0.000  0.000  0.000    3.68   0.00   0.00      0      0  278.2   0.09   0.05    0.0   0.36    0.26    0.26    0.23    0.05    0.00    0.00    0.00    0.00    0.00    0.00        1       6
 1980 116    25    10    1.7      0  0.098     34     22      0     79     56     56      0     0.0  0.000      0      0  0.000  0.000  0.303  0.000  0.000  0.000  0.000    3.66   0.00   0.00      0      0  285.5   0.10   0.06    0.0   0.38    0.28    0.28    0.24    0.06    0.00    0.00    0.00    0.00    0.00    0.00        1       7
 1980 117    26    11    2.0      0  0.114     37     25      0     82     62     62      0     0.0  0.000      0      0  0.000  0.000  0.204  0.000  0.000  0.000  0.000    3.63   0.00   0.00      0      0  308.2   0.11   0.07    0.0   0.40    0.28    0.28    0.25    0.06    0.00    0.00    0.00    0.00    0.00    0.00        2       9
 1980 118    27    12    2.3      0  0.141     44     28      0     82     72     72      0     0.0  0.000      0      0  0.000  0.000  0.000  0.000  0.000  0.000  0.000    3.61   0.00   0.00      0      0  323.5   0.11   0.08    0.0   0.42    0.29    0.29    0.25    0.06    0.00    0.00    0.00    0.00    0.00    0.00        2      11
 1980 119    28    13    2.6      0  0.168     49     34      0     84     83     83      0     0.0  0.000      0      0  0.000  0.000  0.000  0.000  0.000  0.000  0.000    3.56   0.00   0.00      0      0  339.2   0.12   0.08    0.0   0.44    0.29    0.29    0.25    0.07    0.01    0.00    0.00    0.00    0.00    0.00        3      12
 1980 120    29    14    2.9      0  0.206     57     39      0     85     96     96      0     0.0  0.000      0      0  0.000  0.000  0.000  0.000  0.000  0.000  0.000    3.53   0.00   0.00      0      0  358.4   0.13   0.09    0.0   0.46    0.29    0.29    0.25    0.07    0.01    0.00    0.00    0.00    0.00    0.00        3      14
 1980 121    30    15    3.2      0  0.258     70     42      0     85    113    113      0     0.0  0.000      0      0  0.000  0.000  0.000  0.000  0.000  0.000  0.000    3.53   0.00   0.00      0      0  367.5   0.14   0.10    0.0   0.49    0.29    0.29    0.25    0.07    0.01    0.00    0.00    0.00    0.00    0.00        4      16
 1980 122    31    16    3.5      0  0.313     81     49      0     86    131    131      0     0.0  0.000      0      0  0.000  0.000  0.000  0.000  0.000  0.000  0.000    3.52   0.00   0.00      0      0  385.3   0.15   0.12    0.0   0.51    0.29    0.29    0.25    0.07    0.01    0.00    0.00    0.00    0.00    0.00        5      18
 1980 123    32    17    3.8      0  0.365     93     59      0     88    152    152      0     0.0  0.000      0      0  0.000  0.000  0.000  0.000  0.000  0.000  0.000    3.52   0.00   0.00      0      0  390.6   0.16   0.14    0.0   0.53    0.30    0.30    0.25    0.08    0.02    0.00    0.00    0.00    0.00    0.00        5      19
 1980 124    33    18    4.1      0  0.417    105     72      0     90    177    177      0     0.0  0.000      0      0  0.000  0.000  0.000  0.000  0.000  0.000  0.000    3.51   0.00   0.00      0      0  395.5   0.17   0.16    0.0   0.54    0.30    0.30    0.26    0.08    0.02    0.00    0.00    0.00    0.00    0.00        6      21
 1980 125    34    19    4.4      0  0.493    122     83      0     92    206    206      0     0.0  0.000      0      0  0.000  0.000  0.000  0.000  0.000  0.000  0.000    3.52   0.00   0.00      0      0  402.4   0.19   0.18    0.0   0.56    0.31    0.31    0.26    0.09    0.02    0.00    0.00    0.00    0.00    0.00        8      23
 1980 126    35    20    4.7      0  0.604    148     92      0     93    240    240      0     0.0  0.000      0      0  0.000  0.000  0.000  0.000  0.000  0.000  0.000    3.54   0.00   0.00      0      0  407.6   0.20   0.20    0.0   0.58    0.31    0.31    0.26    0.09    0.03    0.00    0.00    0.00    0.00    0.00        9      25
 1980 127    36    21    5.0      0  0.739    178    102      0     94    280    280      0     0.0  0.000      0      0  0.000  0.000  0.000  0.000  0.000  0.000  0.000    3.55   0.00   0.00      0      0  416.4   0.22   0.22    0.0   0.60    0.31    0.31    0.26    0.09    0.03    0.00    0.00    0.00    0.00    0.00       11      27
 1980 128    37    22    5.3      0  0.869    207    120      0     98    327    327      0     0.0  0.000      0      0  0.000  0.000  0.000  0.000  0.000  0.000  0.000    3.56   0.00   0.00      0      0  419.2   0.24   0.25    0.0   0.62    0.32    0.32    0.27    0.10    0.03    0.01    0.00    0.00    0.00    0.00       13      29
 1980 129    38    23    5.6      0  1.018    241    140      0    102    381    381      0     0.0  0.000      0      0  0.000  0.000  0.000  0.000  0.000  0.000  0.000    3.56   0.00   0.00      0      0  422.5   0.26   0.27    0.0   0.64    0.33    0.33    0.27    0.10    0.04    0.01    0.00    0.00    0.00    0.00       15      31
 1980 130    39    24    5.9      0  1.177    279    164      0    107    442    442      0     0.0  0.000      0      0  0.000  0.000  0.000  0.000  0.000  0.000  0.000    3.57   0.00   0.00      0      0  422.3   0.28   0.29    0.0   0.65    0.34    0.34    0.28    0.11    0.04    0.01    0.00    0.00    0.00    0.00       18      33
 1980 131    40    25    6.2      0  1.369    321    191      0    113    512    512      0     0.0  0.000      0      0  0.000  0.000  0.000  0.000  0.000  0.000  0.000    3.57   0.00   0.00      0      0  426.2   0.31   0.31    0.0   0.67    0.35    0.35    0.29    0.12    0.05    0.02    0.00    0.00    0.00    0.00       21      36
 1980 132    41    26    6.5      0  1.561    366    222      0    120    588    588      0     0.0  0.000      0      0  0.000  0.000  0.000  0.000  0.000  0.000  0.000    3.59   0.00   0.00      0      0  426.5   0.34   0.33    0.0   0.69    0.37    0.37    0.30    0.13    0.06    0.02    0.00    0.00    0.00    0.00       29      38
 1980 133    42    27    6.8      0  1.746    407    255      0    128    662    662      0     0.0  0.000      0      0  0.000  0.000  0.000  0.000  0.000  0.000  0.000    3.65   0.00   0.00      0      0  428.9   0.37   0.36    0.0   0.71    0.39    0.39    0.31    0.14    0.06    0.03    0.00    0.00    0.00    0.00       47      41
 1980 134    43    28    7.1      0  1.953    441    287      0    135    728    728      0     0.0  0.000      0      0  0.000  0.000  0.000  0.000  0.000  0.000  0.000    3.70   0.00   0.00      0      0  443.1   0.40   0.38    0.0   0.72    0.40    0.40    0.33    0.15    0.07    0.03    0.00    0.00    0.00    0.00       67      44
 1980 135    44    29    7.4      0  2.154    480    327      0    144    807    807      0     0.0  0.000      0      0  0.000  0.000  0.000  0.000  0.000  0.000  0.000    3.75   0.00   0.00      0      0  448.8   0.43   0.40    0.0   0.74    0.42    0.42    0.34    0.16    0.08    0.04    0.01    0.00    0.00    0.00       90      46
 1980 136    45    30    7.7      0  2.345    518    370      0    153    888    888      0     0.0  0.000      0      0  0.000  0.000  0.000  0.000  0.000  0.000  0.000    3.81   0.00   0.00      0      0  453.1   0.46   0.42    0.0   0.76    0.45    0.45    0.36    0.17    0.09    0.04    0.01    0.00    0.00    0.00      117      49
 1980 137    46    31    7.9      1  2.514    558    421      0    164    979    979      0     0.0  0.000      0      0  0.000  0.000  0.000  0.000  0.000  0.000  0.000    3.87   0.00   0.00      0      0  450.7   0.49   0.44    0.0   0.77    0.47    0.47    0.37    0.18    0.10    0.05    0.01    0.00    0.00    0.00      149      53
 1980 138    47    32    8.2      1  2.713    608    480      0    175   1088   1088      0     0.0  0.000      0      0  0.000  0.000  0.000  0.000  0.000  0.000  0.000    3.88   0.00   0.00      0      0  446.1   0.52   0.46    0.0   0.79    0.50    0.50    0.39    0.20    0.11    0.05    0.02    0.00    0.00    0.00      170      56
 1980 139    48    33    8.5      1  2.915    662    545      0    187   1208   1208      0     0.0  0.000      0      0  0.000  0.000  0.000  0.000  0.000  0.000  0.000    3.88   0.00   0.00      0      0  440.1   0.55   0.48    0.0   0.81    0.52    0.52    0.41    0.21    0.12    0.06    0.02    0.00    0.00    0.00      190      60
 1980 140    49    34    8.8      3  3.106    717    616      0    199   1333   1333      0     0.0  0.000      0      0  0.000  0.000  0.000  0.000  0.000  0.000  0.000    3.88   0.00   0.00      0      0  433.0   0.58   0.50    0.0   0.82    0.55    0.55    0.43    0.23    0.13    0.07    0.03    0.00    0.00    0.00      210      64
 1980 141    50    35    9.1      3  3.261    773    691      0    212   1464   1469      0     0.0  0.000      5      6  0.000  0.000  0.000  0.000  0.000  0.000  0.000    3.87   0.00   0.00      0      5  421.9   0.61   0.52    0.0   0.84    0.58    0.58    0.45    0.24    0.14    0.07    0.03    0.00    0.00    0.00      231      68
 1980 142    51    36    9.5      3  3.401    818    761      0    222   1579   1599      0     0.0  0.000     20     18  0.000  0.000  0.000  0.000  0.000  0.000  0.000    3.87   0.00   0.01      0     20  415.7   0.64   0.54    0.0   0.86    0.60    0.60    0.47    0.25    0.15    0.08    0.04    0.00    0.00    0.00      255      73
 1980 143    52    37    9.8      3  3.519    864    832      0    232   1695   1741      0     0.0  0.000     46     31  0.000  0.000  0.000  0.000  0.000  0.000  0.000    3.85   0.00   0.03      0     46  407.4   0.68   0.55    0.0   0.87    0.62    0.62    0.49    0.27    0.16    0.08    0.04    0.00    0.00    0.00      274      78
 1980 144    53    38   10.1      3  3.607    904    901      0    241   1805   1888      0     0.0  0.000     83     45  0.000  0.000  0.000  0.000  0.000  0.000  0.000    3.84   0.00   0.04      0     83  399.0   0.72   0.57    0.0   0.89    0.64    0.64    0.50    0.28    0.17    0.09    0.05    0.01    0.00    0.00      294      83
 1980 145    54    39   10.4      3  3.671    939    965      0    248   1904   2036      0     0.0  0.000    132     59  0.000  0.000  0.000  0.000  0.000  0.000  0.000    3.82   0.00   0.06      0    132  391.0   0.75   0.58    0.0   0.91    0.66    0.66    0.51    0.28    0.18    0.09    0.05    0.01    0.00    0.00      312      88
 1980 146    55    40   10.7      3  3.719    973   1031      0    255   2004   2194      0     0.0  0.000    191     73  0.000  0.000  0.000  0.000  0.000  0.000  0.000    3.80   0.00   0.09      0    191  382.1   0.79   0.59    0.0   0.92    0.67    0.67    0.52    0.29    0.18    0.10    0.05    0.01    0.00    0.00      328      93
 1980 147    56    41   11.0      5  3.741    998   1085      0    260   2083   2345     19     0.0  0.000    262     87  0.000  0.000  0.000  0.000  0.000  0.000  0.000    3.78   0.00   0.11      0    262  374.9   0.83   0.60    0.0   0.94    0.68    0.68    0.53    0.30    0.19    0.10    0.06    0.01    0.00    0.00      345      98
 1980 148    57    42   11.3      5  3.748   1015   1129      7    263   2144   2495     60    12.4  0.003    350    102  0.000  0.000  0.000  0.000  0.000  0.000  0.000    3.75   2.11   0.14      0    350  369.1   0.86   0.60    0.0   0.96    0.69    0.69    0.53    0.30    0.19    0.10    0.06    0.01    0.00    0.00      363     104
 1980 149    58    43   11.6      5  3.734   1024   1161     30    263   2185   2645    103    29.3  0.011    459    116  0.000  0.000  0.000  0.000  0.000  0.000  0.000    3.73   6.58   0.17      0    459  364.6   0.90   0.60    0.0   0.97    0.69    0.69    0.53    0.30    0.19    0.10    0.06    0.01    0.00    0.00      380     110
 1980 150    59    44   11.6      5  3.704   1025   1183     70    262   2209   2796    148    47.2  0.025    587    130  0.000  0.000  0.000  0.000  0.000  0.000  0.000    3.71  11.89   0.21      0    587  361.2   0.94   0.60    0.0   0.99    0.68    0.68    0.53    0.30    0.19    0.10    0.06    0.01    0.00    0.00      398     116
 1980 151    60    45   11.6      5  3.643   1010   1180    128    258   2190   2926    195    65.7  0.044    736    144  0.000  0.000  0.000  0.000  0.000  0.000  0.000    3.66  17.38   0.25      0    736  360.7   0.98   0.60    0.0   1.01    0.67    0.67    0.52    0.30    0.19    0.10    0.06    0.01    0.00    0.00      417     121
 1980 152    61    46   11.6      5  3.578    994   1177    203    253   2171   3069    243    83.4  0.066    898    157  0.000  0.000  0.000  0.000  0.000  0.000  0.000    3.61  22.54   0.29      0    898  360.1   1.01   0.60    0.0   1.02    0.66    0.66    0.51    0.29    0.18    0.10    0.06    0.01    0.00    0.00      437     127
 1980 153    62    47   11.6      5  3.507    971   1162    299    248   2134   3201    243   122.9  0.093   1067    172  0.000  0.000  0.000  0.000  0.000  0.000  0.000    3.56  27.97   0.33      0   1067  361.1   1.01   0.60    0.0   1.02    0.65    0.65    0.50    0.29    0.18    0.10    0.06    0.01    0.00    0.00      453     132
 1980 154    63    48   11.6      5  3.444    951   1150    392    243   2101   3322    291   134.6  0.118   1221    185  0.000  0.000  0.000  0.000  0.000  0.000  0.000    3.52  32.09   0.37      0   1221  362.0   1.01   0.60    0.0   1.04    0.64    0.64    0.49    0.28    0.18    0.09    0.06    0.01    0.00    0.00      471     136
 1980 155    64    49   11.6      5  3.367    927   1134    503    238   2061   3465    342   147.2  0.145   1403    197  0.000  0.000  0.000  0.000  0.000  0.000  0.000    3.45  35.87   0.41      0   1403  363.1   1.01   0.60    0.0   1.04    0.62    0.62    0.48    0.28    0.17    0.09    0.06    0.01    0.00    0.00      493     141
 1980 156    65    50   11.6      5  3.280    900   1118    635    232   2018   3603    392   161.9  0.176   1585    208  0.000  0.000  0.000  0.000  0.000  0.000  0.000    3.38  40.07   0.44      0   1585  364.3   1.01   0.60    0.0   1.04    0.61    0.61    0.47    0.27    0.17    0.09    0.05    0.01    0.00    0.00      516     146
 1980 157    66    51   11.6      5  3.190    873   1101    785    227   1974   3743    441   177.7  0.210   1769    216  0.000  0.000  0.000  0.000  0.000  0.000  0.000    3.30  44.36   0.47      0   1769  365.5   1.01   0.60    0.0   1.05    0.60    0.60    0.46    0.26    0.17    0.09    0.05    0.01    0.00    0.00      541     151
 1980 158    67    52   11.6      5  3.092    843   1084    955    221   1927   3877    491   194.5  0.246   1950    220  0.000  0.000  0.000  0.000  0.000  0.000  0.000    3.21  49.01   0.50      0   1950  366.7   1.01   0.60    0.0   1.05    0.58    0.58    0.45    0.26    0.16    0.09    0.05    0.01    0.00    0.00      566     156
 1980 159    68    53   11.6      5  2.991    813   1067   1142    216   1881   4013    538   212.1  0.285   2132    223  0.000  0.000  0.000  0.000  0.000  0.000  0.000    3.10  53.55   0.53      0   2132  367.8   1.01   0.60    0.0   1.07    0.57    0.57    0.44    0.25    0.16    0.08    0.05    0.01    0.00    0.00      593     161
 1980 160    69    54   11.6      7  2.895    786   1054   1335    211   1839   4133    561   238.0  0.323   2293    215  0.000  0.000  0.000  0.000  0.000  0.000  0.000    2.99  58.22   0.55      0   2293  368.5   1.01   0.60    0.0   1.07    0.56    0.56    0.43    0.25    0.16    0.08    0.05    0.01    0.00    0.00      635     165
 1980 161    70    55   11.6      7  2.139    578    986   1519    206   1564   4022    567   267.7  0.378   2458    203  0.000  0.000  0.000  0.000  0.000  0.000  0.000    2.80  61.81   0.61      0   2458  369.8   1.01   0.60    0.0   1.07    0.55    0.55    0.42    0.24    0.15    0.08    0.05    0.01    0.00    0.00      899     170
 1980 162    71    56   11.6      7  1.584    427    935   1666    202   1362   3958    567   293.6  0.421   2596    179  0.000  0.000  0.000  0.000  0.000  0.000  0.000    2.65  64.17   0.66      0   2596  371.1   1.01   0.60    0.0   1.07    0.54    0.54    0.42    0.24    0.15    0.08    0.05    0.01    0.00    0.00     1087     174
 1980 163    72    57   11.6      7  1.174    315    896   1785    197   1211   3918    567   314.6  0.456   2707    171  0.000  0.000  0.000  0.000  0.000  0.000  0.000    2.49  65.95   0.69      0   2707  372.3   1.01   0.60    0.0   1.07    0.52    0.52    0.41    0.23    0.15    0.08    0.05    0.01    0.00    0.00     1226     178
 1980 164    73    58   11.6      7  0.871    233    866   1875    193   1099   3888    567   330.3  0.482   2789    165  0.000  0.000  0.000  0.000  0.000  0.000  0.000    2.36  67.22   0.72      0   2789  373.5   1.01   0.60    0.0   1.07    0.51    0.51    0.40    0.23    0.14    0.08    0.05    0.01    0.00    0.00     1329     182
 1980 165    74    59   11.6      7  0.648    173    843   1940    189   1016   3863    567   341.9  0.502   2848    165  0.000  0.000  0.000  0.000  0.000  0.000  0.000    2.25  68.14   0.74      0   2848  374.7   1.01   0.60    0.0   1.07    0.50    0.50    0.39    0.22    0.14    0.07    0.04    0.01    0.00    0.00     1404     186
 1980 166    75    60   11.6      7  0.482    128    825   1992    185    953   3846    567   351.0  0.518   2893    163  0.000  0.000  0.000  0.000  0.000  0.000  0.000    2.13  68.87   0.75      0   2893  375.9   1.01   0.60    0.0   1.07    0.49    0.49    0.38    0.22    0.14    0.07    0.04    0.01    0.00    0.00     1461     190
 1980 167    76    61   11.6      7  0.358     95    811   2029    181    906   3829    567   357.5  0.530   2923    162  0.000  0.000  0.000  0.000  0.000  0.000  0.000    2.03  69.40   0.76      0   2923  376.9   1.01   0.60    0.0   1.07    0.48    0.48    0.37    0.21    0.13    0.07    0.04    0.01    0.00    0.00     1502     194
 1980 168    77    62   11.6      7  0.267     71    800   2052    177    871   3813    567   361.7  0.538   2942    162  0.000  0.000  0.000  0.000  0.000  0.000  0.000    1.96  69.76   0.77      0   2942  377.9   1.01   0.60    0.0   1.08    0.47    0.47    0.37    0.21    0.13    0.07    0.04    0.01    0.00    0.00     1533     198
 1980 169    78    63   11.6      8  0.200     53    792   2066    173    844   3797    567   364.0  0.544   2952    162  0.000  0.000  0.000  0.000  0.000  0.000  0.000    1.92  69.98   0.78      0   2952  379.0   1.01   0.60    0.0   1.08    0.46    0.46    0.36    0.21    0.13    0.07    0.04    0.01    0.00    0.00     1556     201

*DSSAT Cropping System Model Ver. 4.6.1.000 -release      JUL 11, 2017; 16:24:55
                                                                                
*RUN   2        : SIM                       CRGRO046 8\000008    1              
 MODEL          : CRGRO046 - Dry bean                                           
 EXPERIMENT     : 8\000008 BN PALMIRA_ANALISIS SENSIBILIDAD                     
 DATA PATH      : D:\B\0\00000                                                  
 TREATMENT  1   : SIM                       CRGRO046                            
  
!                                                                                                                                                                                                                                                    Root Dens. (cm/cm3) by soil depth (cm):
!                                                                                                                                                                                                                                                    0-5    5-15   15-25   25-35   35-50   50-65   65-80   80-99  99-122 122-209
@YEAR DOY   DAS   DAP   L#SD   GSTD   LAID   LWAD   SWAD   GWAD   RWAD   VWAD   CWAD   G#AD    GWGD   HIAD   PWAD   P#AD   WSPD   WSGD   NSTD  PST1A  PST2A   KSTD   EWSD    LN%D   SH%D   HIPD   PWDD   PWTD   SLAD   CHTD   CWID   NWAD   RDPD    RL1D    RL2D    RL3D    RL4D    RL5D    RL6D    RL7D    RL8D    RL9D   RL10D    SNW0C   SNW1C
 1981 106    15     0    0.0      0  0.000      0      0      0      0      0      0      0     0.0  0.000      0      0  0.000  0.000  0.000  0.000  0.000  0.000  0.000    0.00   0.00   0.00      0      0    0.0   0.00   0.00    0.0   0.00    0.00    0.00    0.00    0.00    0.00    0.00    0.00    0.00    0.00    0.00        0       0
 1981 107    16     1    0.0      0  0.000      0      0      0      0      0      0      0     0.0  0.000      0      0  0.000  0.000  0.000  0.000  0.000  0.000  0.000    0.00   0.00   0.00      0      0    0.0   0.00   0.00    0.0   0.00    0.00    0.00    0.00    0.00    0.00    0.00    0.00    0.00    0.00    0.00        0       0
 1981 108    17     2    0.0      0  0.000      0      0      0      0      0      0      0     0.0  0.000      0      0  0.000  0.000  0.000  0.000  0.000  0.000  0.000    0.00   0.00   0.00      0      0    0.0   0.00   0.00    0.0   0.00    0.00    0.00    0.00    0.00    0.00    0.00    0.00    0.00    0.00    0.00        0       0
 1981 109    18     3    0.0      0  0.000      0      0      0      0      0      0      0     0.0  0.000      0      0  0.000  0.000  0.000  0.000  0.000  0.000  0.000    0.00   0.00   0.00      0      0    0.0   0.00   0.00    0.0   0.00    0.00    0.00    0.00    0.00    0.00    0.00    0.00    0.00    0.00    0.00        0       0
 1981 110    19     4    0.0      0  0.000      0      0      0      0      0      0      0     0.0  0.000      0      0  0.000  0.000  0.000  0.000  0.000  0.000  0.000    0.00   0.00   0.00      0      0    0.0   0.00   0.00    0.0   0.00    0.00    0.00    0.00    0.00    0.00    0.00    0.00    0.00    0.00    0.00        0       0
 1981 111    20     5    0.2      0  0.079     31     13      0     43     44     44      0     0.0  0.000      0      0  0.000  0.000  0.000  0.000  0.000  0.000  0.000    3.84   0.00   0.00      0      0  256.6   0.04   0.03    0.0   0.27    0.15    0.15    0.15    0.00    0.00    0.00    0.00    0.00    0.00    0.00        0       1
 1981 112    21     6    0.5      0  0.082     31     14      0     51     45     45      0     0.0  0.000      0      0  0.000  0.000  0.653  0.000  0.000  0.000  0.000    3.78   0.00   0.00      0      0  261.6   0.05   0.03    0.0   0.29    0.18    0.18    0.18    0.01    0.00    0.00    0.00    0.00    0.00    0.00        0       2
 1981 113    22     7    0.8      0  0.084     32     15      0     59     46     46      0     0.0  0.000      0      0  0.000  0.000  0.742  0.000  0.000  0.000  0.000    3.73   0.00   0.00      0      0  265.1   0.06   0.04    0.0   0.31    0.21    0.21    0.20    0.02    0.00    0.00    0.00    0.00    0.00    0.00        0       3
 1981 114    23     8    1.1      0  0.087     32     16      0     67     48     48      0     0.0  0.000      0      0  0.000  0.000  0.576  0.000  0.000  0.000  0.000    3.71   0.00   0.00      0      0  270.8   0.07   0.04    0.0   0.33    0.24    0.24    0.22    0.03    0.00    0.00    0.00    0.00    0.00    0.00        0       4
 1981 115    24     9    1.3      0  0.091     33     18      0     74     51     51      0     0.0  0.000      0      0  0.000  0.000  0.498  0.000  0.000  0.000  0.000    3.68   0.00   0.00      0      0  276.8   0.08   0.05    0.0   0.36    0.26    0.26    0.23    0.04    0.00    0.00    0.00    0.00    0.00    0.00        1       6
 1981 116    25    10    1.7      0  0.096     34     21      0     80     54     54      0     0.0  0.000      0      0  0.000  0.000  0.437  0.000  0.000  0.000  0.000    3.66   0.00   0.00      0      0  285.0   0.09   0.06    0.0   0.38    0.28    0.28    0.25    0.06    0.00    0.00    0.00    0.00    0.00    0.00        1       7
 1981 117    26    11    1.9      0  0.107     35     23      0     84     59     59      0     0.0  0.000      0      0  0.000  0.000  0.290  0.000  0.000  0.000  0.000    3.64   0.00   0.00      0      0  303.6   0.10   0.07    0.0   0.40    0.29    0.29    0.25    0.06    0.00    0.00    0.00    0.00    0.00    0.00        2       9
 1981 118    27    12    2.2      0  0.129     41     26      0     84     67     67      0     0.0  0.000      0      0  0.000  0.000  0.000  0.000  0.000  0.000  0.000    3.64   0.00   0.00      0      0  314.7   0.11   0.07    0.0   0.42    0.29    0.29    0.25    0.06    0.00    0.00    0.00    0.00    0.00    0.00        2      10
 1981 119    28    13    2.5      0  0.157     47     31      0     85     78     78      0     0.0  0.000      0      0  0.000  0.000  0.000  0.000  0.000  0.000  0.000    3.58   0.00   0.00      0      0  332.8   0.12   0.08    0.0   0.44    0.30    0.30    0.25    0.07    0.01    0.00    0.00    0.00    0.00    0.00        2      12
 1981 120    29    14    2.8      0  0.183     53     37      0     87     90     90      0     0.0  0.000      0      0  0.000  0.000  0.000  0.000  0.000  0.000  0.000    3.55   0.00   0.00      0      0  347.2   0.12   0.09    0.0   0.46    0.30    0.30    0.26    0.07    0.01    0.00    0.00    0.00    0.00    0.00        3      14
 1981 121    30    15    3.1      0  0.236     64     40      0     87    104    104      0     0.0  0.000      0      0  0.000  0.000  0.000  0.000  0.000  0.000  0.000    3.54   0.00   0.00      0      0  367.4   0.13   0.10    0.0   0.48    0.30    0.30    0.26    0.07    0.01    0.00    0.00    0.00    0.00    0.00        4      16
 1981 122    31    16    3.4      0  0.290     76     46      0     87    122    122      0     0.0  0.000      0      0  0.000  0.000  0.000  0.000  0.000  0.000  0.000    3.53   0.00   0.00      0      0  379.3   0.14   0.11    0.0   0.50    0.30    0.30    0.26    0.07    0.01    0.00    0.00    0.00    0.00    0.00        4      17
 1981 123    32    17    3.7      0  0.343     88     54      0     89    142    142      0     0.0  0.000      0      0  0.000  0.000  0.000  0.000  0.000  0.000  0.000    3.52   0.00   0.00      0      0  388.7   0.15   0.13    0.0   0.52    0.30    0.30    0.26    0.08    0.02    0.00    0.00    0.00    0.00    0.00        5      19
 1981 124    33    18    3.9      0  0.394     99     66      0     91    165    165      0     0.0  0.000      0      0  0.000  0.000  0.000  0.000  0.000  0.000  0.000    3.51   0.00   0.00      0      0  397.7   0.17   0.15    0.0   0.54    0.31    0.31    0.26    0.08    0.02    0.00    0.00    0.00    0.00    0.00        6      21
 1981 125    34    19    4.2      0  0.445    110     80      0     94    190    190      0     0.0  0.000      0      0  0.000  0.000  0.000  0.000  0.000  0.000  0.000    3.51   0.00   0.00      0      0  403.5   0.18   0.17    0.0   0.56    0.31    0.31    0.26    0.09    0.02    0.00    0.00    0.00    0.00    0.00        7      23
 1981 126    35    20    4.5      0  0.548    131     87      0     94    218    218      0     0.0  0.000      0      0  0.000  0.000  0.000  0.000  0.000  0.000  0.000    3.53   0.00   0.00      0      0  417.2   0.19   0.19    0.0   0.57    0.31    0.31    0.26    0.09    0.03    0.00    0.00    0.00    0.00    0.00        8      25
 1981 127    36    21    4.8      0  0.670    159     96      0     95    254    254      0     0.0  0.000      0      0  0.000  0.000  0.000  0.000  0.000  0.000  0.000    3.55   0.00   0.00      0      0  421.8   0.21   0.21    0.0   0.59    0.32    0.32    0.26    0.09    0.03    0.00    0.00    0.00    0.00    0.00       10      27
 1981 128    37    22    5.0      0  0.767    181    108      0     98    289    289      0     0.0  0.000      0      0  0.000  0.000  0.000  0.000  0.000  0.000  0.000    3.55   0.00   0.00      0      0  423.7   0.22   0.23    0.0   0.61    0.32    0.32    0.27    0.09    0.03    0.00    0.00    0.00    0.00    0.00       11      28
 1981 129    38    23    5.3      0  0.893    210    126      0    101    336    336      0     0.0  0.000      0      0  0.000  0.000  0.000  0.000  0.000  0.000  0.000    3.56   0.00   0.00      0      0  424.4   0.24   0.24    0.0   0.62    0.33    0.33    0.27    0.10    0.04    0.01    0.00    0.00    0.00    0.00       13      30
 1981 130    39    24    5.6      0  1.045    244    146      0    105    389    389      0     0.0  0.000      0      0  0.000  0.000  0.000  0.000  0.000  0.000  0.000    3.56   0.00   0.00      0      0  429.2   0.26   0.26    0.0   0.64    0.34    0.34    0.28    0.10    0.04    0.01    0.00    0.00    0.00    0.00       16      32
 1981 131    40    25    5.9      0  1.215    281    169      0    110    450    450      0     0.0  0.000      0      0  0.000  0.000  0.000  0.000  0.000  0.000  0.000    3.57   0.00   0.00      0      0  432.4   0.28   0.29    0.0   0.66    0.35    0.35    0.29    0.11    0.05    0.01    0.00    0.00    0.00    0.00       18      35
 1981 132    41    26    6.2      0  1.407    324    196      0    116    520    520      0     0.0  0.000      0      0  0.000  0.000  0.000  0.000  0.000  0.000  0.000    3.57   0.00   0.00      0      0  434.7   0.31   0.31    0.0   0.67    0.36    0.36    0.30    0.12    0.05    0.02    0.00    0.00    0.00    0.00       22      37
 1981 133    42    27    6.5      0  1.611    368    227      0    123    595    595      0     0.0  0.000      0      0  0.000  0.000  0.000  0.000  0.000  0.000  0.000    3.59   0.00   0.00      0      0  437.2   0.33   0.33    0.0   0.69    0.38    0.38    0.31    0.13    0.06    0.02    0.00    0.00    0.00    0.00       29      39
 1981 134    43    28    6.8      0  1.802    409    260      0    131    669    669      0     0.0  0.000      0      0  0.000  0.000  0.000  0.000  0.000  0.000  0.000    3.64   0.00   0.00      0      0  440.4   0.36   0.35    0.0   0.71    0.40    0.40    0.32    0.14    0.07    0.03    0.00    0.00    0.00    0.00       46      42
 1981 135    44    29    7.1      0  1.980    452    298      0    139    749    749      0     0.0  0.000      0      0  0.000  0.000  0.000  0.000  0.000  0.000  0.000    3.70   0.00   0.00      0      0  438.6   0.39   0.37    0.0   0.72    0.42    0.42    0.34    0.15    0.08    0.03    0.00    0.00    0.00    0.00       66      45
 1981 136    45    30    7.3      0  2.181    488    335      0    148    823    823      0     0.0  0.000      0      0  0.000  0.000  0.000  0.000  0.000  0.000  0.000    3.75   0.00   0.00      0      0  447.1   0.42   0.39    0.0   0.74    0.44    0.44    0.35    0.16    0.08    0.04    0.01    0.00    0.00    0.00       90      48
 1981 137    46    31    7.6      0  2.372    528    381      0    158    909    909      0     0.0  0.000      0      0  0.000  0.000  0.000  0.000  0.000  0.000  0.000    3.81   0.00   0.00      0      0  448.9   0.45   0.41    0.0   0.76    0.46    0.46    0.37    0.17    0.09    0.04    0.01    0.00    0.00    0.00      117      51
 1981 138    47    32    7.9      1  2.546    568    432      0    168   1000   1000      0     0.0  0.000      0      0  0.000  0.000  0.000  0.000  0.000  0.000  0.000    3.87   0.00   0.00      0      0  448.6   0.48   0.44    0.0   0.77    0.48    0.48    0.38    0.19    0.10    0.05    0.01    0.00    0.00    0.00      150      54
 1981 139    48    33    8.2      1  2.735    618    492      0    180   1109   1109      0     0.0  0.000      0      0  0.000  0.000  0.000  0.000  0.000  0.000  0.000    3.89   0.00   0.00      0      0  443.0   0.51   0.45    0.0   0.79    0.51    0.51    0.40    0.20    0.11    0.05    0.02    0.00    0.00    0.00      173      57
 1981 140    49    34    8.5      1  2.929    672    558      0    192   1231   1231      0     0.0  0.000      0      0  0.000  0.000  0.000  0.000  0.000  0.000  0.000    3.88   0.00   0.00      0      0  435.7   0.54   0.47    0.0   0.81    0.54    0.54    0.42    0.22    0.12    0.06    0.02    0.00    0.00    0.00      193      61
 1981 141    50    35    8.8      3  3.118    727    630      0    204   1357   1357      0     0.0  0.000      0      0  0.000  0.000  0.000  0.000  0.000  0.000  0.000    3.88   0.00   0.00      0      0  428.8   0.57   0.49    0.0   0.82    0.56    0.56    0.44    0.23    0.13    0.07    0.03    0.00    0.00    0.00      214      66
 1981 142    51    36    9.1      3  3.281    781    705      0    216   1486   1491      0     0.0  0.000      5      6  0.000  0.000  0.000  0.000  0.000  0.000  0.000    3.87   0.00   0.00      0      5  419.8   0.60   0.51    0.0   0.84    0.59    0.59    0.46    0.25    0.15    0.07    0.04    0.00    0.00    0.00      235      70
 1981 143    52    37    9.4      3  3.413    827    774      0    226   1602   1622      0     0.0  0.000     20     18  0.000  0.000  0.000  0.000  0.000  0.000  0.000    3.87   0.00   0.01      0     20  412.5   0.64   0.53    0.0   0.86    0.61    0.61    0.48    0.26    0.16    0.08    0.04    0.00    0.00    0.00      256      74
 1981 144    53    38    9.7      3  3.521    871    844      0    236   1715   1762      0     0.0  0.000     47     31  0.000  0.000  0.000  0.000  0.000  0.000  0.000    3.86   0.00   0.03      0     47  404.2   0.67   0.55    0.0   0.87    0.63    0.63    0.50    0.27    0.16    0.08    0.04    0.00    0.00    0.00      276      79
 1981 145    54    39   10.0      3  3.602    909    909      0    244   1818   1904      0     0.0  0.000     86     45  0.000  0.000  0.000  0.000  0.000  0.000  0.000    3.84   0.00   0.04      0     86  396.3   0.70   0.56    0.0   0.89    0.65    0.65    0.51    0.28    0.17    0.09    0.05    0.00    0.00    0.00      294      84
 1981 146    55    40   10.3      3  3.663    942    971      0    251   1913   2049      0     0.0  0.000    136     59  0.000  0.000  0.000  0.000  0.000  0.000  0.000    3.82   0.00   0.07      0    136  388.8   0.74   0.57    0.0   0.90    0.67    0.67    0.52    0.29    0.18    0.09    0.05    0.01    0.00    0.00      312      89
 1981 147    56    41   10.6      3  3.705    971   1028      0    257   2000   2198      0     0.0  0.000    198     74  0.000  0.000  0.000  0.000  0.000  0.000  0.000    3.80   0.00   0.09      0    198  381.5   0.77   0.59    0.0   0.92    0.68    0.68    0.53    0.29    0.18    0.10    0.05    0.01    0.00    0.00      327      94
 1981 148    57    42   10.9      5  3.732    998   1084      0    262   2082   2354      0     0.0  0.000    272     88  0.000  0.000  0.000  0.000  0.000  0.000  0.000    3.78   0.00   0.12      0    272  374.0   0.81   0.60    0.0   0.94    0.69    0.69    0.54    0.30    0.19    0.10    0.06    0.01    0.00    0.00      341      99
 1981 149    58    43   11.2      5  3.740   1016   1130      0    265   2146   2503     20     0.0  0.000    357    103  0.000  0.000  0.000  0.000  0.000  0.000  0.000    3.75   0.00   0.14      0    357  368.1   0.84   0.60    0.0   0.95    0.69    0.69    0.54    0.30    0.19    0.10    0.06    0.01    0.00    0.00      356     105
 1981 150    59    44   11.5      5  3.734   1030   1170      8    267   2200   2656     62    12.3  0.003    457    118  0.000  0.000  0.000  0.000  0.000  0.000  0.000    3.72   1.68   0.17      0    457  362.5   0.88   0.60    0.0   0.97    0.70    0.70    0.54    0.31    0.19    0.10    0.06    0.01    0.00    0.00      370     110
 1981 151    60    45   11.5      5  3.710   1036   1199     32    267   2235   2809    107    29.8  0.011    574    133  0.000  0.000  0.000  0.000  0.000  0.000  0.000    3.70   5.56   0.20      0    574  358.2   0.92   0.60    0.0   0.98    0.70    0.70    0.54    0.31    0.19    0.10    0.06    0.01    0.00    0.00      386     116
 1981 152    61    46   11.5      5  3.656   1025   1205     74    264   2230   2942    154    48.1  0.025    712    148  0.000  0.000  0.000  0.000  0.000  0.000  0.000    3.65  10.44   0.24      0    712  356.6   0.96   0.60    0.0   1.00    0.69    0.69    0.53    0.30    0.19    0.10    0.06    0.01    0.00    0.00      404     122
 1981 153    62    47   11.5      5  3.592   1010   1203    135    260   2213   3078    202    66.5  0.044    866    162  0.000  0.000  0.000  0.000  0.000  0.000  0.000    3.60  15.55   0.28      0    866  355.8   0.99   0.60    0.0   1.02    0.68    0.68    0.52    0.30    0.19    0.10    0.06    0.01    0.00    0.00      422     127
 1981 154    63    48   11.5      5  3.523    991   1198    212    255   2189   3222    251    84.2  0.066   1033    177  0.000  0.000  0.000  0.000  0.000  0.000  0.000    3.55  20.51   0.32      0   1033  355.3   0.99   0.60    0.0   1.03    0.67    0.67    0.52    0.29    0.19    0.10    0.06    0.01    0.00    0.00      442     133
 1981 155    64    49   11.5      5  3.444    966   1182    308    249   2148   3363    301   102.3  0.092   1215    191  0.000  0.000  0.000  0.000  0.000  0.000  0.000    3.49  25.37   0.36      0   1215  356.4   0.99   0.60    0.0   1.03    0.65    0.65    0.50    0.29    0.18    0.10    0.06    0.01    0.00    0.00      463     138
 1981 156    65    50   11.5      5  3.359    939   1165    423    243   2104   3500    352   120.1  0.121   1395    205  0.000  0.000  0.000  0.000  0.000  0.000  0.000    3.42  30.33   0.40      0   1395  357.5   0.99   0.60    0.0   1.05    0.64    0.64    0.49    0.28    0.18    0.09    0.06    0.01    0.00    0.00      487     144
 1981 157    66    51   11.5      5  3.268    911   1148    558    237   2058   3634    403   138.5  0.154   1576    216  0.000  0.000  0.000  0.000  0.000  0.000  0.000    3.34  35.41   0.43      0   1576  358.7   0.99   0.60    0.0   1.07    0.62    0.62    0.48    0.28    0.17    0.09    0.05    0.01    0.00    0.00      511     149
 1981 158    67    52   11.5      5  3.175    882   1130    718    232   2012   3751    506   141.9  0.191   1739    223  0.000  0.000  0.000  0.000  0.000  0.000  0.000    3.26  41.30   0.46      0   1739  359.9   0.99   0.60    0.0   1.07    0.61    0.61    0.47    0.27    0.17    0.09    0.05    0.01    0.00    0.00      540     154
 1981 159    68    53   11.5      5  3.081    854   1114    911    227   1968   3887    506   179.9  0.234   1920    228  0.000  0.000  0.000  0.000  0.000  0.000  0.000    3.16  47.43   0.49      0   1920  361.0   0.99   0.60    0.0   1.07    0.60    0.60    0.46    0.26    0.17    0.09    0.05    0.01    0.00    0.00      561     158
 1981 160    69    54   11.5      7  2.992    827   1099   1103    222   1925   4009    541   203.8  0.275   2084    223  0.000  0.000  0.000  0.000  0.000  0.000  0.000    3.07  52.94   0.52      0   2084  362.0   0.99   0.60    0.0   1.07    0.59    0.59    0.45    0.26    0.16    0.09    0.05    0.01    0.00    0.00      599     163
 1981 161    70    55   11.5      7  2.211    609   1026   1296    217   1635   3879    569   227.7  0.334   2245    216  0.000  0.000  0.000  0.000  0.000  0.000  0.000    2.89  57.72   0.58      0   2245  363.3   0.99   0.60    0.0   1.07    0.58    0.58    0.45    0.25    0.16    0.09    0.05    0.01    0.00    0.00      889     167
 1981 162    71    56   11.5      7  1.635    448    972   1455    212   1420   3804    576   252.5  0.382   2384    204  0.000  0.000  0.000  0.000  0.000  0.000  0.000    2.71  61.03   0.63      0   2384  364.7   0.99   0.60    0.0   1.07    0.56    0.56    0.44    0.25    0.16    0.08    0.05    0.01    0.00    0.00     1097     172
 1981 163    72    57   11.5      7  1.211    331    930   1571    207   1261   3752    576   272.6  0.419   2491    189  0.000  0.000  0.000  0.000  0.000  0.000  0.000    2.56  63.06   0.66      0   2491  366.0   0.99   0.60    0.0   1.07    0.55    0.55    0.43    0.24    0.15    0.08    0.05    0.01    0.00    0.00     1243     176
 1981 164    73    58   11.5      7  0.898    245    898   1671    202   1143   3725    576   289.9  0.448   2583    178  0.000  0.000  0.000  0.000  0.000  0.000  0.000    2.41  64.69   0.69      0   2583  367.3   0.99   0.60    0.0   1.07    0.54    0.54    0.42    0.24    0.15    0.08    0.05    0.01    0.00    0.00     1350     181
 1981 165    74    59   11.5      7  0.667    181    873   1745    198   1054   3703    576   302.8  0.471   2649    170  0.000  0.000  0.000  0.000  0.000  0.000  0.000    2.28  65.87   0.72      0   2649  368.6   0.99   0.60    0.0   1.07    0.53    0.53    0.41    0.23    0.15    0.08    0.05    0.01    0.00    0.00     1430     185
 1981 166    75    60   11.5      7  0.495    134    853   1800    193    987   3684    576   312.3  0.489   2697    165  0.000  0.000  0.000  0.000  0.000  0.000  0.000    2.16  66.74   0.73      0   2697  369.9   0.99   0.60    0.0   1.07    0.52    0.52    0.40    0.23    0.14    0.08    0.05    0.01    0.00    0.00     1488     189
 1981 167    76    61   11.5      7  0.369     99    838   1837    189    937   3665    576   318.7  0.501   2728    165  0.000  0.000  0.000  0.000  0.000  0.000  0.000    2.06  67.34   0.74      0   2728  371.1   0.99   0.60    0.0   1.07    0.51    0.51    0.39    0.22    0.14    0.07    0.04    0.01    0.00    0.00     1532     193
 1981 168    77    62   11.5      7  0.275     74    826   1863    185    899   3648    576   323.3  0.511   2749    165  0.000  0.000  0.000  0.000  0.000  0.000  0.000    1.98  67.79   0.75      0   2749  372.3   0.99   0.60    0.0   1.07    0.50    0.50    0.38    0.22    0.14    0.07    0.04    0.01    0.00    0.00     1564     197
 1981 169    78    63   11.5      8  0.205     55    816   1878    181    871   3631    576   325.9  0.517   2760    165  0.000  0.000  0.000  0.000  0.000  0.000  0.000    1.94  68.04   0.76      0   2760  373.5   0.99   0.60    0.0   1.08    0.49    0.49    0.38    0.21    0.14    0.07    0.04    0.01    0.00    0.00     1588     201

*DSSAT Cropping System Model Ver. 4.6.1.000 -release      JUL 11, 2017; 16:24:55
                                                                                
*RUN   3        : SIM                       CRGRO046 8\000008    1              
 MODEL          : CRGRO046 - Dry bean                                           
 EXPERIMENT     : 8\000008 BN PALMIRA_ANALISIS SENSIBILIDAD                     
 DATA PATH      : D:\B\0\00000                                                  
 TREATMENT  1   : SIM                       CRGRO046                            
  
!                                                                                                                                                                                                                                                    Root Dens. (cm/cm3) by soil depth (cm):
!                                                                                                                                                                                                                                                    0-5    5-15   15-25   25-35   35-50   50-65   65-80   80-99  99-122 122-209
@YEAR DOY   DAS   DAP   L#SD   GSTD   LAID   LWAD   SWAD   GWAD   RWAD   VWAD   CWAD   G#AD    GWGD   HIAD   PWAD   P#AD   WSPD   WSGD   NSTD  PST1A  PST2A   KSTD   EWSD    LN%D   SH%D   HIPD   PWDD   PWTD   SLAD   CHTD   CWID   NWAD   RDPD    RL1D    RL2D    RL3D    RL4D    RL5D    RL6D    RL7D    RL8D    RL9D   RL10D    SNW0C   SNW1C
 1982 106    15     0    0.0      0  0.000      0      0      0      0      0      0      0     0.0  0.000      0      0  0.000  0.000  0.000  0.000  0.000  0.000  0.000    0.00   0.00   0.00      0      0    0.0   0.00   0.00    0.0   0.00    0.00    0.00    0.00    0.00    0.00    0.00    0.00    0.00    0.00    0.00        0       0
 1982 107    16     1    0.0      0  0.000      0      0      0      0      0      0      0     0.0  0.000      0      0  0.000  0.000  0.000  0.000  0.000  0.000  0.000    0.00   0.00   0.00      0      0    0.0   0.00   0.00    0.0   0.00    0.00    0.00    0.00    0.00    0.00    0.00    0.00    0.00    0.00    0.00        0       0
 1982 108    17     2    0.0      0  0.000      0      0      0      0      0      0      0     0.0  0.000      0      0  0.000  0.000  0.000  0.000  0.000  0.000  0.000    0.00   0.00   0.00      0      0    0.0   0.00   0.00    0.0   0.00    0.00    0.00    0.00    0.00    0.00    0.00    0.00    0.00    0.00    0.00        0       0
 1982 109    18     3    0.0      0  0.000      0      0      0      0      0      0      0     0.0  0.000      0      0  0.000  0.000  0.000  0.000  0.000  0.000  0.000    0.00   0.00   0.00      0      0    0.0   0.00   0.00    0.0   0.00    0.00    0.00    0.00    0.00    0.00    0.00    0.00    0.00    0.00    0.00        0       0
 1982 110    19     4    0.0      0  0.000      0      0      0      0      0      0      0     0.0  0.000      0      0  0.000  0.000  0.000  0.000  0.000  0.000  0.000    0.00   0.00   0.00      0      0    0.0   0.00   0.00    0.0   0.00    0.00    0.00    0.00    0.00    0.00    0.00    0.00    0.00    0.00    0.00        0       0
 1982 111    20     5    0.2      0  0.079     31     13      0     43     44     44      0     0.0  0.000      0      0  0.000  0.000  0.000  0.000  0.000  0.000  0.000    3.84   0.00   0.00      0      0  256.8   0.04   0.03    0.0   0.27    0.15    0.15    0.15    0.00    0.00    0.00    0.00    0.00    0.00    0.00        0       1
 1982 112    21     6    0.5      0  0.082     31     14      0     51     45     45      0     0.0  0.000      0      0  0.000  0.000  0.664  0.000  0.000  0.000  0.000    3.78   0.00   0.00      0      0  261.1   0.05   0.03    0.0   0.29    0.18    0.18    0.18    0.01    0.00    0.00    0.00    0.00    0.00    0.00        0       2
 1982 113    22     7    0.8      0  0.084     32     15      0     59     46     46      0     0.0  0.000      0      0  0.000  0.000  0.741  0.000  0.000  0.000  0.000    3.73   0.00   0.00      0      0  264.7   0.06   0.04    0.0   0.31    0.21    0.21    0.20    0.02    0.00    0.00    0.00    0.00    0.00    0.00        0       3
 1982 114    23     8    1.1      0  0.088     32     16      0     67     49     49      0     0.0  0.000      0      0  0.000  0.000  0.543  0.000  0.000  0.000  0.000    3.71   0.00   0.00      0      0  270.2   0.07   0.04    0.0   0.33    0.24    0.24    0.22    0.03    0.00    0.00    0.00    0.00    0.00    0.00        0       4
 1982 115    24     9    1.4      0  0.092     33     18      0     74     51     51      0     0.0  0.000      0      0  0.000  0.000  0.485  0.000  0.000  0.000  0.000    3.69   0.00   0.00      0      0  275.5   0.08   0.05    0.0   0.36    0.26    0.26    0.23    0.04    0.00    0.00    0.00    0.00    0.00    0.00        1       6
 1982 116    25    10    1.7      0  0.097     34     21      0     80     55     55      0     0.0  0.000      0      0  0.000  0.000  0.401  0.000  0.000  0.000  0.000    3.66   0.00   0.00      0      0  283.4   0.09   0.06    0.0   0.38    0.28    0.28    0.25    0.05    0.00    0.00    0.00    0.00    0.00    0.00        1       7
 1982 117    26    11    2.0      0  0.112     38     25      0     83     63     63      0     0.0  0.000      0      0  0.000  0.000  0.118  0.000  0.000  0.000  0.000    3.65   0.00   0.00      0      0  296.9   0.10   0.07    0.0   0.40    0.29    0.29    0.25    0.06    0.00    0.00    0.00    0.00    0.00    0.00        2       9
 1982 118    27    12    2.2      0  0.134     42     28      0     84     70     70      0     0.0  0.000      0      0  0.000  0.000  0.058  0.000  0.000  0.000  0.000    3.60   0.00   0.00      0      0  321.5   0.11   0.07    0.0   0.42    0.29    0.29    0.25    0.06    0.00    0.00    0.00    0.00    0.00    0.00        2      10
 1982 119    28    13    2.5      0  0.160     47     33      0     85     80     80      0     0.0  0.000      0      0  0.000  0.000  0.000  0.000  0.000  0.000  0.000    3.57   0.00   0.00      0      0  339.5   0.12   0.08    0.0   0.44    0.30    0.30    0.25    0.07    0.01    0.00    0.00    0.00    0.00    0.00        2      12
 1982 120    29    14    2.8      0  0.189     54     39      0     87     93     93      0     0.0  0.000      0      0  0.000  0.000  0.000  0.000  0.000  0.000  0.000    3.53   0.00   0.00      0      0  351.7   0.13   0.09    0.0   0.46    0.30    0.30    0.26    0.07    0.01    0.00    0.00    0.00    0.00    0.00        3      14
 1982 121    30    15    3.1      0  0.243     66     42      0     87    108    108      0     0.0  0.000      0      0  0.000  0.000  0.000  0.000  0.000  0.000  0.000    3.53   0.00   0.00      0      0  369.7   0.14   0.10    0.0   0.48    0.30    0.30    0.25    0.07    0.01    0.00    0.00    0.00    0.00    0.00        4      16
 1982 122    31    16    3.4      0  0.298     77     48      0     87    126    126      0     0.0  0.000      0      0  0.000  0.000  0.000  0.000  0.000  0.000  0.000    3.52   0.00   0.00      0      0  384.9   0.15   0.11    0.0   0.50    0.30    0.30    0.26    0.07    0.01    0.00    0.00    0.00    0.00    0.00        4      18
 1982 123    32    17    3.7      0  0.352     90     57      0     89    147    147      0     0.0  0.000      0      0  0.000  0.000  0.000  0.000  0.000  0.000  0.000    3.51   0.00   0.00      0      0  393.1   0.16   0.13    0.0   0.52    0.30    0.30    0.26    0.08    0.02    0.00    0.00    0.00    0.00    0.00        5      19
 1982 124    33    18    4.0      0  0.407    101     69      0     91    171    171      0     0.0  0.000      0      0  0.000  0.000  0.000  0.000  0.000  0.000  0.000    3.51   0.00   0.00      0      0  400.9   0.17   0.15    0.0   0.54    0.31    0.31    0.26    0.08    0.02    0.00    0.00    0.00    0.00    0.00        6      21
 1982 125    34    19    4.3      0  0.464    114     84      0     94    197    197      0     0.0  0.000      0      0  0.000  0.000  0.000  0.000  0.000  0.000  0.000    3.50   0.00   0.00      0      0  409.0   0.18   0.17    0.0   0.56    0.31    0.31    0.26    0.09    0.02    0.00    0.00    0.00    0.00    0.00        7      23
 1982 126    35    20    4.6      0  0.572    138     92      0     94    229    229      0     0.0  0.000      0      0  0.000  0.000  0.000  0.000  0.000  0.000  0.000    3.53   0.00   0.00      0      0  414.7   0.20   0.20    0.0   0.58    0.31    0.31    0.26    0.09    0.03    0.00    0.00    0.00    0.00    0.00        9      25
 1982 127    36    21    4.9      0  0.702    166    101      0     95    267    267      0     0.0  0.000      0      0  0.000  0.000  0.000  0.000  0.000  0.000  0.000    3.55   0.00   0.00      0      0  422.0   0.22   0.22    0.0   0.60    0.32    0.32    0.26    0.09    0.03    0.00    0.00    0.00    0.00    0.00       10      27
 1982 128    37    22    5.2      0  0.831    194    117      0     99    311    311      0     0.0  0.000      0      0  0.000  0.000  0.000  0.000  0.000  0.000  0.000    3.55   0.00   0.00      0      0  428.0   0.23   0.24    0.0   0.62    0.32    0.32    0.27    0.09    0.03    0.01    0.00    0.00    0.00    0.00       12      29
 1982 129    38    23    5.5      0  0.976    226    136      0    102    361    361      0     0.0  0.000      0      0  0.000  0.000  0.000  0.000  0.000  0.000  0.000    3.56   0.00   0.00      0      0  432.6   0.26   0.26    0.0   0.63    0.33    0.33    0.27    0.10    0.04    0.01    0.00    0.00    0.00    0.00       14      31
 1982 130    39    24    5.8      0  1.135    261    158      0    107    419    419      0     0.0  0.000      0      0  0.000  0.000  0.000  0.000  0.000  0.000  0.000    3.56   0.00   0.00      0      0  434.7   0.28   0.29    0.0   0.65    0.34    0.34    0.28    0.11    0.04    0.01    0.00    0.00    0.00    0.00       17      34
 1982 131    40    25    6.1      0  1.320    302    183      0    112    485    485      0     0.0  0.000      0      0  0.000  0.000  0.000  0.000  0.000  0.000  0.000    3.57   0.00   0.00      0      0  437.6   0.30   0.31    0.0   0.67    0.35    0.35    0.29    0.11    0.05    0.02    0.00    0.00    0.00    0.00       20      36
 1982 132    41    26    6.4      0  1.521    347    213      0    119    560    560      0     0.0  0.000      0      0  0.000  0.000  0.000  0.000  0.000  0.000  0.000    3.57   0.00   0.00      0      0  438.5   0.33   0.33    0.0   0.68    0.37    0.37    0.30    0.12    0.06    0.02    0.00    0.00    0.00    0.00       24      38
 1982 133    42    27    6.7      0  1.715    386    244      0    126    631    631      0     0.0  0.000      0      0  0.000  0.000  0.000  0.000  0.000  0.000  0.000    3.63   0.00   0.00      0      0  444.0   0.36   0.35    0.0   0.70    0.39    0.39    0.31    0.13    0.06    0.02    0.00    0.00    0.00    0.00       40      41
 1982 134    43    28    7.0      0  1.906    427    281      0    134    708    708      0     0.0  0.000      0      0  0.000  0.000  0.000  0.000  0.000  0.000  0.000    3.69   0.00   0.00      0      0  446.2   0.39   0.38    0.0   0.72    0.40    0.40    0.33    0.14    0.07    0.03    0.00    0.00    0.00    0.00       60      44
 1982 135    44    29    7.3      0  2.093    468    321      0    143    790    790      0     0.0  0.000      0      0  0.000  0.000  0.000  0.000  0.000  0.000  0.000    3.75   0.00   0.00      0      0  446.9   0.42   0.40    0.0   0.74    0.43    0.43    0.34    0.16    0.08    0.03    0.01    0.00    0.00    0.00       83      47
 1982 136    45    30    7.6      0  2.255    509    367      0    153    876    876      0     0.0  0.000      0      0  0.000  0.000  0.000  0.000  0.000  0.000  0.000    3.81   0.00   0.00      0      0  443.1   0.45   0.42    0.0   0.75    0.45    0.45    0.36    0.17    0.09    0.04    0.01    0.00    0.00    0.00      112      50
 1982 137    46    31    7.9      0  2.426    548    417      0    164    966    966      0     0.0  0.000      0      0  0.000  0.000  0.000  0.000  0.000  0.000  0.000    3.87   0.00   0.00      0      0  442.3   0.48   0.44    0.0   0.77    0.47    0.47    0.38    0.18    0.10    0.05    0.01    0.00    0.00    0.00      144      53
 1982 138    47    32    8.2      1  2.643    592    474      0    175   1067   1067      0     0.0  0.000      0      0  0.000  0.000  0.000  0.000  0.000  0.000  0.000    3.89   0.00   0.00      0      0  446.1   0.51   0.46    0.0   0.79    0.50    0.50    0.39    0.19    0.11    0.05    0.02    0.00    0.00    0.00      167      57
 1982 139    48    33    8.5      1  2.838    644    538      0    186   1182   1182      0     0.0  0.000      0      0  0.000  0.000  0.000  0.000  0.000  0.000  0.000    3.88   0.00   0.00      0      0  440.7   0.54   0.48    0.0   0.80    0.52    0.52    0.41    0.21    0.12    0.06    0.02    0.00    0.00    0.00      184      60
 1982 140    49    34    8.8      3  3.027    695    607      0    198   1302   1302      0     0.0  0.000      0      0  0.000  0.000  0.000  0.000  0.000  0.000  0.000    3.88   0.00   0.00      0      0  435.4   0.57   0.50    0.0   0.82    0.55    0.55    0.43    0.22    0.13    0.06    0.03    0.00    0.00    0.00      204      64
 1982 141    50    35    9.1      3  3.201    740    672      0    208   1413   1413      0     0.0  0.000      0      0  0.000  0.000  0.000  0.000  0.000  0.000  0.000    3.87   0.00   0.00      0      0  432.4   0.60   0.52    0.0   0.83    0.57    0.57    0.45    0.24    0.14    0.07    0.03    0.00    0.00    0.00      223      68
 1982 142    51    36    9.3      3  3.364    791    747      0    220   1538   1541      0     0.0  0.000      3      4  0.000  0.000  0.000  0.000  0.000  0.000  0.000    3.86   0.00   0.00      0      3  425.3   0.63   0.53    0.0   0.85    0.60    0.60    0.47    0.25    0.15    0.08    0.04    0.00    0.00    0.00      242      72
 1982 143    52    37    9.6      3  3.487    839    824      0    231   1663   1681      0     0.0  0.000     17     17  0.000  0.000  0.000  0.000  0.000  0.000  0.000    3.86   0.00   0.01      0     17  415.3   0.67   0.55    0.0   0.87    0.62    0.62    0.49    0.26    0.16    0.08    0.04    0.00    0.00    0.00      262      76
 1982 144    53    38    9.9      3  3.581    883    899      0    241   1783   1826      0     0.0  0.000     43     30  0.000  0.000  0.000  0.000  0.000  0.000  0.000    3.85   0.00   0.02      0     43  405.4   0.70   0.56    0.0   0.88    0.65    0.65    0.50    0.28    0.17    0.09    0.05    0.00    0.00    0.00      282      81
 1982 145    54    39   10.2      3  3.646    912    956      0    248   1868   1949      0     0.0  0.000     81     44  0.000  0.000  0.000  0.000  0.000  0.000  0.000    3.84   0.00   0.04      0     81  399.8   0.74   0.58    0.0   0.90    0.66    0.66    0.51    0.28    0.17    0.09    0.05    0.01    0.00    0.00      301      86
 1982 146    55    40   10.5      3  3.711    948   1024      0    256   1972   2101      0     0.0  0.000    129     57  0.000  0.000  0.000  0.000  0.000  0.000  0.000    3.81   0.00   0.06      0    129  391.3   0.77   0.59    0.0   0.91    0.68    0.68    0.53    0.29    0.18    0.09    0.05    0.01    0.00    0.00      316      91
 1982 147    56    41   10.8      3  3.743    973   1079      0    261   2052   2242      0     0.0  0.000    190     72  0.000  0.000  0.000  0.000  0.000  0.000  0.000    3.79   0.00   0.08      0    190  384.7   0.81   0.60    0.0   0.93    0.69    0.69    0.53    0.30    0.19    0.10    0.06    0.01    0.00    0.00      332      96
 1982 148    57    42   11.0      5  3.767    997   1134      0    265   2131   2393      0     0.0  0.000    263     86  0.000  0.000  0.000  0.000  0.000  0.000  0.000    3.76   0.00   0.11      0    263  377.7   0.84   0.60    0.0   0.94    0.69    0.69    0.54    0.30    0.19    0.10    0.06    0.01    0.00    0.00      345     101
 1982 149    58    43   11.3      5  3.775   1017   1183      0    268   2200   2547     13     0.0  0.000    347    101  0.000  0.000  0.000  0.000  0.000  0.000  0.000    3.74   0.00   0.14      0    347  371.2   0.88   0.60    0.0   0.96    0.70    0.70    0.54    0.31    0.19    0.10    0.06    0.01    0.00    0.00      357     107
 1982 150    59    44   11.6      5  3.767   1032   1226      5    271   2258   2701     57     9.0  0.002    443    116  0.000  0.000  0.000  0.000  0.000  0.000  0.000    3.71   1.15   0.16      0    443  365.0   0.91   0.60    0.0   0.98    0.70    0.70    0.55    0.31    0.20    0.10    0.06    0.01    0.00    0.00      372     113
 1982 151    60    45   11.6      5  3.739   1038   1260     27    271   2298   2853    103    25.9  0.009    555    131  0.000  0.000  0.000  0.000  0.000  0.000  0.000    3.68   4.81   0.19      0    555  360.1   0.95   0.60    0.0   0.99    0.70    0.70    0.54    0.31    0.20    0.10    0.06    0.01    0.00    0.00      390     118
 1982 152    61    46   11.6      5  3.692   1035   1279     66    270   2314   2999    151    43.8  0.022    685    146  0.000  0.000  0.000  0.000  0.000  0.000  0.000    3.65   9.66   0.23      0    685  356.8   0.98   0.60    0.0   1.01    0.70    0.70    0.54    0.31    0.20    0.10    0.06    0.02    0.00    0.00      408     124
 1982 153    62    47   11.6      5  3.625   1022   1285    124    266   2307   3140    194    64.0  0.040    833    160  0.000  0.000  0.000  0.000  0.000  0.000  0.000    3.60  14.91   0.27      0    833  354.8   1.02   0.60    0.0   1.03    0.69    0.69    0.53    0.31    0.19    0.10    0.06    0.02    0.00    0.00      428     130
 1982 154    63    48   11.6      5  3.546   1000   1275    199    261   2275   3271    292    68.2  0.061    996    174  0.000  0.000  0.000  0.000  0.000  0.000  0.000    3.54  20.01   0.30      0    996  354.7   1.02   0.60    0.0   1.04    0.68    0.68    0.52    0.30    0.19    0.10    0.06    0.02    0.00    0.00      454     136
 1982 155    64    49   11.6      5  3.462    973   1257    315    255   2230   3395    342    92.1  0.093   1165    188  0.000  0.000  0.000  0.000  0.000  0.000  0.000    3.48  27.05   0.34      0   1165  355.9   1.02   0.60    0.0   1.04    0.66    0.66    0.51    0.29    0.19    0.10    0.06    0.02    0.00    0.00      477     142
 1982 156    65    50   11.6      5  3.372    944   1238    448    249   2182   3529    393   114.0  0.127   1347    199  0.000  0.000  0.000  0.000  0.000  0.000  0.000    3.40  33.30   0.38      0   1347  357.1   1.02   0.60    0.0   1.04    0.65    0.65    0.50    0.29    0.18    0.10    0.06    0.02    0.00    0.00      501     147
 1982 157    66    51   11.6      5  3.279    915   1219    602    243   2134   3665    446   135.0  0.164   1532    207  0.000  0.000  0.000  0.000  0.000  0.000  0.000    3.32  39.29   0.42      0   1532  358.4   1.02   0.60    0.0   1.04    0.64    0.64    0.49    0.28    0.18    0.10    0.06    0.01    0.00    0.00      526     152
 1982 158    67    52   11.6      5  3.181    885   1202    769    237   2087   3806    496   155.0  0.202   1720    212  0.000  0.000  0.000  0.000  0.000  0.000  0.000    3.23  44.73   0.45      0   1720  359.3   1.02   0.60    0.0   1.06    0.62    0.62    0.48    0.28    0.18    0.09    0.06    0.01    0.00    0.00      552     158
 1982 159    68    53   11.6      5  3.078    853   1182    960    232   2035   3931    532   180.4  0.244   1896    210  0.000  0.000  0.000  0.000  0.000  0.000  0.000    3.13  50.63   0.48      0   1896  360.6   1.02   0.60    0.0   1.06    0.61    0.61    0.47    0.27    0.17    0.09    0.06    0.01    0.00    0.00      592     163
 1982 160    69    54   11.6      7  2.977    823   1164   1159    226   1987   4060    541   214.3  0.285   2074    197  0.000  0.000  0.000  0.000  0.000  0.000  0.000    3.02  55.89   0.51      0   2074  361.8   1.02   0.60    0.0   1.06    0.60    0.60    0.46    0.26    0.17    0.09    0.05    0.01    0.00    0.00      625     168
 1982 161    70    55   11.6      7  2.200    606   1091   1355    221   1697   3956    541   250.6  0.342   2260    183  0.000  0.000  0.000  0.000  0.000  0.000  0.000    2.84  59.95   0.57      0   2260  363.2   1.02   0.60    0.0   1.06    0.58    0.58    0.45    0.26    0.16    0.09    0.05    0.01    0.00    0.00      893     173
 1982 162    71    56   11.6      7  1.628    447   1037   1516    216   1483   3895    541   280.4  0.389   2412    172  0.000  0.000  0.000  0.000  0.000  0.000  0.000    2.67  62.85   0.62      0   2412  364.4   1.02   0.60    0.0   1.06    0.57    0.57    0.44    0.25    0.16    0.09    0.05    0.01    0.00    0.00     1090     177
 1982 163    72    57   11.6      7  1.206    330    995   1641    211   1324   3853    541   303.6  0.426   2529    163  0.000  0.000  0.000  0.000  0.000  0.000  0.000    2.51  64.90   0.66      0   2529  365.7   1.02   0.60    0.0   1.06    0.56    0.56    0.43    0.25    0.16    0.08    0.05    0.01    0.00    0.00     1235     182
 1982 164    73    58   11.6      7  0.894    244    963   1740    206   1207   3827    541   321.8  0.455   2620    158  0.000  0.000  0.000  0.000  0.000  0.000  0.000    2.37  66.41   0.68      0   2620  366.9   1.02   0.60    0.0   1.06    0.55    0.55    0.42    0.24    0.15    0.08    0.05    0.01    0.00    0.00     1342     187
 1982 165    74    59   11.6      7  0.664    180    937   1812    201   1117   3802    541   335.1  0.477   2684    155  0.000  0.000  0.000  0.000  0.000  0.000  0.000    2.24  67.49   0.71      0   2684  368.3   1.02   0.60    0.0   1.06    0.53    0.53    0.41    0.24    0.15    0.08    0.05    0.01    0.00    0.00     1421     191
 1982 166    75    60   11.6      7  0.494    134    918   1866    196   1051   3783    541   345.1  0.493   2732    154  0.000  0.000  0.000  0.000  0.000  0.000  0.000    2.13  68.29   0.72      0   2732  369.5   1.02   0.60    0.0   1.06    0.52    0.52    0.40    0.23    0.15    0.08    0.05    0.01    0.00    0.00     1480     195
 1982 167    76    61   11.6      7  0.367     99    901   1905    192   1001   3765    541   352.3  0.506   2765    154  0.000  0.000  0.000  0.000  0.000  0.000  0.000    2.02  68.89   0.73      0   2765  370.8   1.02   0.60    0.0   1.07    0.51    0.51    0.40    0.23    0.14    0.08    0.05    0.01    0.00    0.00     1523     199
 1982 168    77    62   11.6      7  0.274     74    889   1930    188    962   3748    541   357.0  0.515   2785    154  0.000  0.000  0.000  0.000  0.000  0.000  0.000    1.95  69.30   0.74      0   2785  372.0   1.02   0.60    0.0   1.09    0.50    0.50    0.39    0.22    0.14    0.07    0.05    0.01    0.00    0.00     1555     204
 1982 169    78    63   11.6      8  0.205     55    880   1944    184    934   3730    541   359.6  0.521   2796    154  0.000  0.000  0.000  0.000  0.000  0.000  0.000    1.91  69.54   0.75      0   2796  373.1   1.02   0.60    0.0   1.09    0.49    0.49    0.38    0.22    0.14    0.07    0.04    0.01    0.00    0.00     1579     208

*DSSAT Cropping System Model Ver. 4.6.1.000 -release      JUL 11, 2017; 16:24:55
                                                                                
*RUN   4        : SIM                       CRGRO046 8\000008    1              
 MODEL          : CRGRO046 - Dry bean                                           
 EXPERIMENT     : 8\000008 BN PALMIRA_ANALISIS SENSIBILIDAD                     
 DATA PATH      : D:\B\0\00000                                                  
 TREATMENT  1   : SIM                       CRGRO046                            
  
!                                                                                                                                                                                                                                                    Root Dens. (cm/cm3) by soil depth (cm):
!                                                                                                                                                                                                                                                    0-5    5-15   15-25   25-35   35-50   50-65   65-80   80-99  99-122 122-209
@YEAR DOY   DAS   DAP   L#SD   GSTD   LAID   LWAD   SWAD   GWAD   RWAD   VWAD   CWAD   G#AD    GWGD   HIAD   PWAD   P#AD   WSPD   WSGD   NSTD  PST1A  PST2A   KSTD   EWSD    LN%D   SH%D   HIPD   PWDD   PWTD   SLAD   CHTD   CWID   NWAD   RDPD    RL1D    RL2D    RL3D    RL4D    RL5D    RL6D    RL7D    RL8D    RL9D   RL10D    SNW0C   SNW1C
 1983 106    15     0    0.0      0  0.000      0      0      0      0      0      0      0     0.0  0.000      0      0  0.000  0.000  0.000  0.000  0.000  0.000  0.000    0.00   0.00   0.00      0      0    0.0   0.00   0.00    0.0   0.00    0.00    0.00    0.00    0.00    0.00    0.00    0.00    0.00    0.00    0.00        0       0
 1983 107    16     1    0.0      0  0.000      0      0      0      0      0      0      0     0.0  0.000      0      0  0.000  0.000  0.000  0.000  0.000  0.000  0.000    0.00   0.00   0.00      0      0    0.0   0.00   0.00    0.0   0.00    0.00    0.00    0.00    0.00    0.00    0.00    0.00    0.00    0.00    0.00        0       0
 1983 108    17     2    0.0      0  0.000      0      0      0      0      0      0      0     0.0  0.000      0      0  0.000  0.000  0.000  0.000  0.000  0.000  0.000    0.00   0.00   0.00      0      0    0.0   0.00   0.00    0.0   0.00    0.00    0.00    0.00    0.00    0.00    0.00    0.00    0.00    0.00    0.00        0       0
 1983 109    18     3    0.0      0  0.000      0      0      0      0      0      0      0     0.0  0.000      0      0  0.000  0.000  0.000  0.000  0.000  0.000  0.000    0.00   0.00   0.00      0      0    0.0   0.00   0.00    0.0   0.00    0.00    0.00    0.00    0.00    0.00    0.00    0.00    0.00    0.00    0.00        0       0
 1983 110    19     4    0.0      0  0.000      0      0      0      0      0      0      0     0.0  0.000      0      0  0.000  0.000  0.000  0.000  0.000  0.000  0.000    0.00   0.00   0.00      0      0    0.0   0.00   0.00    0.0   0.00    0.00    0.00    0.00    0.00    0.00    0.00    0.00    0.00    0.00    0.00        0       0
 1983 111    20     5    0.2      0  0.079     31     13      0     43     44     44      0     0.0  0.000      0      0  0.000  0.000  0.000  0.000  0.000  0.000  0.000    3.84   0.00   0.00      0      0  256.7   0.04   0.03    0.0   0.27    0.15    0.15    0.15    0.00    0.00    0.00    0.00    0.00    0.00    0.00        0       1
 1983 112    21     6    0.5      0  0.082     31     14      0     51     45     45      0     0.0  0.000      0      0  0.000  0.000  0.654  0.000  0.000  0.000  0.000    3.78   0.00   0.00      0      0  261.7   0.05   0.03    0.0   0.29    0.18    0.18    0.18    0.01    0.00    0.00    0.00    0.00    0.00    0.00        0       2
 1983 113    22     7    0.8      0  0.084     32     15      0     59     46     46      0     0.0  0.000      0      0  0.000  0.000  0.740  0.000  0.000  0.000  0.000    3.72   0.00   0.00      0      0  265.3   0.06   0.04    0.0   0.31    0.21    0.21    0.20    0.02    0.00    0.00    0.00    0.00    0.00    0.00        0       3
 1983 114    23     8    1.1      0  0.087     32     16      0     67     48     48      0     0.0  0.000      0      0  0.000  0.000  0.595  0.000  0.000  0.000  0.000    3.70   0.00   0.00      0      0  271.2   0.07   0.04    0.0   0.33    0.24    0.24    0.22    0.03    0.00    0.00    0.00    0.00    0.00    0.00        0       4
 1983 115    24     9    1.4      0  0.091     33     18      0     74     51     51      0     0.0  0.000      0      0  0.000  0.000  0.487  0.000  0.000  0.000  0.000    3.68   0.00   0.00      0      0  277.5   0.08   0.05    0.0   0.36    0.26    0.26    0.23    0.04    0.00    0.00    0.00    0.00    0.00    0.00        1       6
 1983 116    25    10    1.7      0  0.096     34     21      0     80     55     55      0     0.0  0.000      0      0  0.000  0.000  0.375  0.000  0.000  0.000  0.000    3.66   0.00   0.00      0      0  285.2   0.09   0.06    0.0   0.38    0.28    0.28    0.24    0.05    0.00    0.00    0.00    0.00    0.00    0.00        1       7
 1983 117    26    11    2.0      0  0.112     37     25      0     83     62     62      0     0.0  0.000      0      0  0.000  0.000  0.154  0.000  0.000  0.000  0.000    3.64   0.00   0.00      0      0  301.1   0.10   0.07    0.0   0.40    0.29    0.29    0.25    0.06    0.00    0.00    0.00    0.00    0.00    0.00        2       9
 1983 118    27    12    2.3      0  0.138     42     28      0     84     71     71      0     0.0  0.000      0      0  0.000  0.000  0.040  0.000  0.000  0.000  0.000    3.59   0.00   0.00      0      0  326.2   0.11   0.07    0.0   0.42    0.29    0.29    0.25    0.06    0.00    0.00    0.00    0.00    0.00    0.00        2      11
 1983 119    28    13    2.6      0  0.165     48     33      0     85     81     81      0     0.0  0.000      0      0  0.000  0.000  0.000  0.000  0.000  0.000  0.000    3.56   0.00   0.00      0      0  342.8   0.12   0.08    0.0   0.44    0.30    0.30    0.25    0.07    0.01    0.00    0.00    0.00    0.00    0.00        2      12
 1983 120    29    14    2.9      0  0.197     55     39      0     87     94     94      0     0.0  0.000      0      0  0.000  0.000  0.000  0.000  0.000  0.000  0.000    3.53   0.00   0.00      0      0  358.2   0.13   0.09    0.0   0.46    0.30    0.30    0.26    0.07    0.01    0.00    0.00    0.00    0.00    0.00        3      14
 1983 121    30    15    3.2      0  0.253     67     42      0     87    110    110      0     0.0  0.000      0      0  0.000  0.000  0.000  0.000  0.000  0.000  0.000    3.52   0.00   0.00      0      0  374.7   0.14   0.10    0.0   0.48    0.30    0.30    0.25    0.07    0.01    0.00    0.00    0.00    0.00    0.00        4      16
 1983 122    31    16    3.5      0  0.309     80     49      0     87    129    129      0     0.0  0.000      0      0  0.000  0.000  0.000  0.000  0.000  0.000  0.000    3.51   0.00   0.00      0      0  387.9   0.15   0.12    0.0   0.50    0.30    0.30    0.26    0.07    0.01    0.00    0.00    0.00    0.00    0.00        4      18
 1983 123    32    17    3.8      0  0.364     92     58      0     89    150    150      0     0.0  0.000      0      0  0.000  0.000  0.000  0.000  0.000  0.000  0.000    3.51   0.00   0.00      0      0  395.5   0.16   0.14    0.0   0.52    0.30    0.30    0.26    0.08    0.02    0.00    0.00    0.00    0.00    0.00        5      20
 1983 124    33    18    4.1      0  0.419    103     71      0     91    174    174      0     0.0  0.000      0      0  0.000  0.000  0.000  0.000  0.000  0.000  0.000    3.50   0.00   0.00      0      0  406.0   0.17   0.16    0.0   0.54    0.31    0.31    0.26    0.08    0.02    0.00    0.00    0.00    0.00    0.00        6      22
 1983 125    34    19    4.4      0  0.490    119     83      0     93    203    203      0     0.0  0.000      0      0  0.000  0.000  0.000  0.000  0.000  0.000  0.000    3.51   0.00   0.00      0      0  410.4   0.19   0.18    0.0   0.56    0.31    0.31    0.26    0.09    0.02    0.00    0.00    0.00    0.00    0.00        8      24
 1983 126    35    20    4.7      0  0.605    145     92      0     94    237    237      0     0.0  0.000      0      0  0.000  0.000  0.000  0.000  0.000  0.000  0.000    3.53   0.00   0.00      0      0  416.8   0.20   0.20    0.0   0.58    0.31    0.31    0.26    0.09    0.03    0.00    0.00    0.00    0.00    0.00        9      26
 1983 127    36    21    5.0      0  0.743    174    102      0     96    276    276      0     0.0  0.000      0      0  0.000  0.000  0.000  0.000  0.000  0.000  0.000    3.55   0.00   0.00      0      0  426.2   0.22   0.22    0.0   0.60    0.32    0.32    0.26    0.09    0.03    0.00    0.00    0.00    0.00    0.00       11      28
 1983 128    37    22    5.3      0  0.873    204    120      0     99    323    323      0     0.0  0.000      0      0  0.000  0.000  0.000  0.000  0.000  0.000  0.000    3.55   0.00   0.00      0      0  427.9   0.24   0.25    0.0   0.62    0.32    0.32    0.27    0.10    0.03    0.01    0.00    0.00    0.00    0.00       13      30
 1983 129    38    23    5.6      0  1.024    238    140      0    103    378    378      0     0.0  0.000      0      0  0.000  0.000  0.000  0.000  0.000  0.000  0.000    3.56   0.00   0.00      0      0  430.7   0.26   0.27    0.0   0.64    0.33    0.33    0.28    0.10    0.04    0.01    0.00    0.00    0.00    0.00       15      32
 1983 130    39    24    5.9      0  1.198    276    164      0    108    440    440      0     0.0  0.000      0      0  0.000  0.000  0.000  0.000  0.000  0.000  0.000    3.56   0.00   0.00      0      0  434.2   0.29   0.29    0.0   0.66    0.34    0.34    0.28    0.11    0.04    0.01    0.00    0.00    0.00    0.00       18      34
 1983 131    40    25    6.2      0  1.405    317    191      0    114    508    508      0     0.0  0.000      0      0  0.000  0.000  0.000  0.000  0.000  0.000  0.000    3.56   0.00   0.00      0      0  443.0   0.32   0.32    0.0   0.67    0.36    0.36    0.29    0.12    0.05    0.02    0.00    0.00    0.00    0.00       21      37
[...]
 2011 111    20     5    0.2      0  0.079     31     13      0     43     44     44      0     0.0  0.000      0      0  0.000  0.000  0.000  0.000  0.000  0.000  0.000    3.84   0.00   0.00      0      0  256.7   0.04   0.03    0.0   0.27    0.15    0.15    0.15    0.00    0.00    0.00    0.00    0.00    0.00    0.00        0       1
 2011 112    21     6    0.5      0  0.082     31     14      0     51     45     45      0     0.0  0.000      0      0  0.000  0.000  0.674  0.000  0.000  0.000  0.000    3.78   0.00   0.00      0      0  261.2   0.05   0.03    0.0   0.29    0.19    0.19    0.18    0.01    0.00    0.00    0.00    0.00    0.00    0.00        0       2
 2011 113    22     7    0.8      0  0.084     32     15      0     60     47     47      0     0.0  0.000      0      0  0.000  0.000  0.703  0.000  0.000  0.000  0.000    3.73   0.00   0.00      0      0  264.8   0.06   0.04    0.0   0.31    0.22    0.22    0.20    0.02    0.00    0.00    0.00    0.00    0.00    0.00        0       3
 2011 114    23     8    1.1      0  0.088     32     16      0     68     49     49      0     0.0  0.000      0      0  0.000  0.000  0.555  0.000  0.000  0.000  0.000    3.71   0.00   0.00      0      0  270.3   0.07   0.04    0.0   0.33    0.24    0.24    0.22    0.03    0.00    0.00    0.00    0.00    0.00    0.00        0       4
 2011 115    24     9    1.4      0  0.092     33     19      0     76     52     52      0     0.0  0.000      0      0  0.000  0.000  0.476  0.000  0.000  0.000  0.000    3.68   0.00   0.00      0      0  277.1   0.08   0.05    0.0   0.36    0.27    0.27    0.24    0.05    0.00    0.00    0.00    0.00    0.00    0.00        1       6
 2011 116    25    10    1.7      0  0.098     34     22      0     82     57     57      0     0.0  0.000      0      0  0.000  0.000  0.298  0.000  0.000  0.000  0.000    3.66   0.00   0.00      0      0  284.0   0.09   0.06    0.0   0.38    0.29    0.29    0.25    0.06    0.00    0.00    0.00    0.00    0.00    0.00        1       7
 2011 117    26    11    2.0      0  0.113     38     27      0     85     64     64      0     0.0  0.000      0      0  0.000  0.000  0.146  0.000  0.000  0.000  0.000    3.63   0.00   0.00      0      0  299.9   0.10   0.07    0.0   0.40    0.30    0.30    0.26    0.06    0.00    0.00    0.00    0.00    0.00    0.00        2       9
 2011 118    27    12    2.3      0  0.140     44     31      0     86     74     74      0     0.0  0.000      0      0  0.000  0.000  0.000  0.000  0.000  0.000  0.000    3.58   0.00   0.00      0      0  320.4   0.11   0.07    0.0   0.42    0.30    0.30    0.26    0.07    0.00    0.00    0.00    0.00    0.00    0.00        2      11
 2011 119    28    13    2.6      0  0.167     50     37      0     88     86     86      0     0.0  0.000      0      0  0.000  0.000  0.000  0.000  0.000  0.000  0.000    3.54   0.00   0.00      0      0  336.3   0.12   0.08    0.0   0.44    0.30    0.30    0.26    0.07    0.01    0.00    0.00    0.00    0.00    0.00        3      13
 2011 120    29    14    2.9      0  0.201     57     43      0     89    100    100      0     0.0  0.000      0      0  0.000  0.000  0.000  0.000  0.000  0.000  0.000    3.52   0.00   0.00      0      0  352.3   0.13   0.09    0.0   0.46    0.31    0.31    0.26    0.07    0.01    0.00    0.00    0.00    0.00    0.00        3      15
 2011 121    30    15    3.2      0  0.259     70     47      0     89    117    117      0     0.0  0.000      0      0  0.000  0.000  0.000  0.000  0.000  0.000  0.000    3.52   0.00   0.00      0      0  369.2   0.14   0.10    0.0   0.48    0.31    0.31    0.26    0.08    0.01    0.00    0.00    0.00    0.00    0.00        4      16
 2011 122    31    16    3.5      0  0.314     83     55      0     91    138    138      0     0.0  0.000      0      0  0.000  0.000  0.000  0.000  0.000  0.000  0.000    3.52   0.00   0.00      0      0  377.3   0.15   0.12    0.0   0.50    0.31    0.31    0.26    0.08    0.01    0.00    0.00    0.00    0.00    0.00        5      18
 2011 123    32    17    3.8      0  0.369     93     66      0     93    159    159      0     0.0  0.000      0      0  0.000  0.000  0.000  0.000  0.000  0.000  0.000    3.50   0.00   0.00      0      0  395.9   0.16   0.14    0.0   0.53    0.31    0.31    0.27    0.08    0.02    0.00    0.00    0.00    0.00    0.00        5      20
 2011 124    33    18    4.1      0  0.423    105     80      0     96    185    185      0     0.0  0.000      0      0  0.000  0.000  0.000  0.000  0.000  0.000  0.000    3.50   0.00   0.00      0      0  403.4   0.17   0.16    0.0   0.55    0.32    0.32    0.27    0.09    0.02    0.00    0.00    0.00    0.00    0.00        7      22
 2011 125    34    19    4.4      0  0.498    122     94      0     98    215    215      0     0.0  0.000      0      0  0.000  0.000  0.000  0.000  0.000  0.000  0.000    3.51   0.00   0.00      0      0  409.2   0.19   0.18    0.0   0.56    0.33    0.33    0.27    0.09    0.03    0.00    0.00    0.00    0.00    0.00        8      24
 2011 126    35    20    4.7      0  0.619    150    103      0     99    252    252      0     0.0  0.000      0      0  0.000  0.000  0.000  0.000  0.000  0.000  0.000    3.54   0.00   0.00      0      0  413.4   0.20   0.20    0.0   0.58    0.33    0.33    0.27    0.09    0.03    0.00    0.00    0.00    0.00    0.00        9      27
 2011 127    36    21    5.0      0  0.758    180    116      0    101    296    296      0     0.0  0.000      0      0  0.000  0.000  0.000  0.000  0.000  0.000  0.000    3.55   0.00   0.00      0      0  422.0   0.22   0.23    0.0   0.60    0.33    0.33    0.28    0.10    0.03    0.00    0.00    0.00    0.00    0.00       11      29
 2011 128    37    22    5.3      0  0.902    212    135      0    105    346    346      0     0.0  0.000      0      0  0.000  0.000  0.000  0.000  0.000  0.000  0.000    3.56   0.00   0.00      0      0  426.1   0.24   0.25    0.0   0.62    0.34    0.34    0.28    0.10    0.04    0.01    0.00    0.00    0.00    0.00       13      31
 2011 129    38    23    5.6      0  1.067    249    157      0    109    406    406      0     0.0  0.000      0      0  0.000  0.000  0.000  0.000  0.000  0.000  0.000    3.57   0.00   0.00      0      0  429.0   0.26   0.27    0.0   0.64    0.35    0.35    0.29    0.11    0.04    0.01    0.00    0.00    0.00    0.00       15      33
 2011 130    39    24    5.9      0  1.245    291    183      0    115    474    474      0     0.0  0.000      0      0  0.000  0.000  0.000  0.000  0.000  0.000  0.000    3.57   0.00   0.00      0      0  428.1   0.29   0.29    0.0   0.66    0.36    0.36    0.30    0.12    0.05    0.01    0.00    0.00    0.00    0.00       18      36
 2011 131    40    25    6.2      0  1.464    337    213      0    121    550    550      0     0.0  0.000      0      0  0.000  0.000  0.000  0.000  0.000  0.000  0.000    3.57   0.00   0.00      0      0  434.1   0.32   0.32    0.0   0.68    0.38    0.38    0.31    0.13    0.06    0.02    0.00    0.00    0.00    0.00       22      38
 2011 132    41    26    6.5      0  1.682    384    246      0    129    631    631      0     0.0  0.000      0      0  0.000  0.000  0.000  0.000  0.000  0.000  0.000    3.61   0.00   0.00      0      0  437.6   0.35   0.34    0.0   0.69    0.40    0.40    0.32    0.14    0.06    0.02    0.00    0.00    0.00    0.00       33      41
 2011 133    42    27    6.8      0  1.892    429    283      0    138    712    712      0     0.0  0.000      0      0  0.000  0.000  0.000  0.000  0.000  0.000  0.000    3.67   0.00   0.00      0      0  441.2   0.38   0.36    0.0   0.71    0.42    0.42    0.34    0.15    0.07    0.03    0.00    0.00    0.00    0.00       51      44
 2011 134    43    28    7.1      0  2.108    471    321      0    146    792    792      0     0.0  0.000      0      0  0.000  0.000  0.000  0.000  0.000  0.000  0.000    3.72   0.00   0.00      0      0  448.0   0.41   0.39    0.0   0.73    0.44    0.44    0.35    0.16    0.08    0.03    0.01    0.00    0.00    0.00       72      46
 2011 135    44    29    7.4      0  2.313    517    368      0    157    885    885      0     0.0  0.000      0      0  0.000  0.000  0.000  0.000  0.000  0.000  0.000    3.78   0.00   0.00      0      0  447.6   0.43   0.40    0.0   0.74    0.46    0.46    0.37    0.17    0.09    0.04    0.01    0.00    0.00    0.00       98      49
 2011 136    45    30    7.7      0  2.514    562    419      0    168    981    981      0     0.0  0.000      0      0  0.000  0.000  0.000  0.000  0.000  0.000  0.000    3.84   0.00   0.00      0      0  447.2   0.46   0.43    0.0   0.76    0.49    0.49    0.39    0.19    0.10    0.05    0.01    0.00    0.00    0.00      129      53
 2011 137    46    31    8.0      1  2.705    606    477      0    180   1083   1083      0     0.0  0.000      0      0  0.000  0.000  0.000  0.000  0.000  0.000  0.000    3.90   0.00   0.00      0      0  446.3   0.49   0.45    0.0   0.78    0.51    0.51    0.41    0.20    0.11    0.05    0.02    0.00    0.00    0.00      166      56
 2011 138    47    32    8.3      1  2.923    665    544      0    193   1210   1210      0     0.0  0.000      0      0  0.000  0.000  0.000  0.000  0.000  0.000  0.000    3.90   0.00   0.00      0      0  439.5   0.52   0.47    0.0   0.79    0.54    0.54    0.43    0.22    0.12    0.06    0.02    0.00    0.00    0.00      187      60
 2011 139    48    33    8.6      1  3.146    724    617      0    206   1341   1341      0     0.0  0.000      0      0  0.000  0.000  0.000  0.000  0.000  0.000  0.000    3.90   0.00   0.00      0      0  434.3   0.55   0.48    0.0   0.81    0.57    0.57    0.45    0.23    0.14    0.07    0.03    0.00    0.00    0.00      209      64
 2011 140    49    34    8.9      3  3.342    788    697      0    220   1485   1485      0     0.0  0.000      0      0  0.000  0.000  0.000  0.000  0.000  0.000  0.000    3.90   0.00   0.00      0      0  424.3   0.58   0.50    0.0   0.82    0.60    0.60    0.47    0.25    0.15    0.07    0.03    0.00    0.00    0.00      231      68
 2011 141    50    35    9.2      3  3.523    848    781      0    234   1628   1632      0     0.0  0.000      4      5  0.000  0.000  0.000  0.000  0.000  0.000  0.000    3.90   0.00   0.00      0      4  415.5   0.61   0.52    0.0   0.84    0.64    0.64    0.50    0.27    0.16    0.08    0.04    0.00    0.00    0.00      256      73
 2011 142    51    36    9.4      3  3.676    902    862      0    247   1764   1784      0     0.0  0.000     20     19  0.000  0.000  0.000  0.000  0.000  0.000  0.000    3.89   0.00   0.01      0     20  407.4   0.64   0.54    0.0   0.86    0.66    0.66    0.52    0.28    0.17    0.09    0.05    0.00    0.00    0.00      280      78
 2011 143    52    37    9.7      3  3.798    955    944      0    259   1899   1947      0     0.0  0.000     48     34  0.000  0.000  0.000  0.000  0.000  0.000  0.000    3.88   0.00   0.02      0     48  397.9   0.68   0.55    0.0   0.87    0.69    0.69    0.54    0.30    0.18    0.09    0.05    0.00    0.00    0.00      303      83
 2011 144    53    38   10.0      3  3.894   1002   1025      0    270   2027   2115      0     0.0  0.000     88     49  0.000  0.000  0.000  0.000  0.000  0.000  0.000    3.87   0.00   0.04      0     88  388.5   0.71   0.57    0.0   0.89    0.71    0.71    0.55    0.31    0.19    0.10    0.05    0.01    0.00    0.00      326      88
 2011 145    54    39   10.3      3  3.967   1041   1098      0    278   2139   2281      0     0.0  0.000    141     65  0.000  0.000  0.000  0.000  0.000  0.000  0.000    3.85   0.00   0.06      0    141  381.0   0.75   0.58    0.0   0.91    0.73    0.73    0.57    0.32    0.20    0.10    0.06    0.01    0.00    0.00      348      94
 2011 146    55    40   10.7      3  4.023   1078   1169      0    286   2247   2454      0     0.0  0.000    206     80  0.000  0.000  0.000  0.000  0.000  0.000  0.000    3.83   0.00   0.08      0    206  373.2   0.79   0.59    0.0   0.92    0.75    0.75    0.58    0.33    0.21    0.11    0.06    0.01    0.00    0.00      366     100
 2011 147    56    41   11.0      5  4.056   1108   1235      0    292   2343   2628      0     0.0  0.000    285     96  0.000  0.000  0.000  0.000  0.000  0.000  0.000    3.80   0.00   0.11      0    285  366.0   0.82   0.60    0.0   0.94    0.76    0.76    0.59    0.34    0.21    0.11    0.07    0.01    0.00    0.00      384     107
 2011 148    57    42   11.3      5  4.073   1133   1292      0    296   2425   2801     16     0.0  0.000    376    112  0.000  0.000  0.000  0.000  0.000  0.000  0.000    3.78   0.00   0.13      0    376  359.4   0.86   0.60    0.0   0.96    0.77    0.77    0.59    0.34    0.22    0.11    0.07    0.01    0.00    0.00      400     113
 2011 149    58    43   11.6      5  4.070   1150   1339      6    298   2489   2968     63     9.6  0.002    479    129  0.000  0.000  0.000  0.000  0.000  0.000  0.000    3.75   1.26   0.16      0    479  353.9   0.90   0.60    0.0   0.97    0.77    0.77    0.60    0.34    0.22    0.12    0.07    0.01    0.00    0.00      421     119
 2011 150    59    44   11.6      5  4.049   1160   1378     30    299   2538   3132    162    18.5  0.010    593    144  0.000  0.000  0.000  0.000  0.000  0.000  0.000    3.73   5.04   0.19      0    593  349.1   0.93   0.60    0.0   0.99    0.77    0.77    0.60    0.35    0.22    0.12    0.07    0.02    0.00    0.00      448     126
 2011 151    60    45   11.6      5  4.005   1155   1393     91    297   2548   3300    212    43.1  0.028    752    160  0.000  0.000  0.000  0.000  0.000  0.000  0.000    3.71  12.14   0.23      0    752  346.8   0.97   0.60    0.0   1.00    0.77    0.77    0.59    0.34    0.22    0.12    0.07    0.02    0.00    0.00      470     132
 2011 152    61    46   11.6      5  3.927   1131   1380    174    290   2511   3445    264    65.8  0.051    935    175  0.000  0.000  0.000  0.000  0.000  0.000  0.000    3.66  18.63   0.27      0    935  347.3   1.01   0.60    0.0   1.02    0.75    0.75    0.58    0.34    0.21    0.11    0.07    0.02    0.00    0.00      494     138
 2011 153    62    47   11.6      5  3.847   1105   1363    279    284   2467   3578    264   105.6  0.078   1111    191  0.000  0.000  0.000  0.000  0.000  0.000  0.000    3.61  25.12   0.31      0   1111  348.3   1.01   0.60    0.0   1.02    0.74    0.74    0.57    0.33    0.21    0.11    0.07    0.02    0.00    0.00      513     144
 2011 154    63    48   11.6      5  3.761   1077   1344    383    277   2421   3721    318   120.5  0.103   1300    205  0.000  0.000  0.000  0.000  0.000  0.000  0.000    3.55  29.47   0.35      0   1300  349.3   1.01   0.60    0.0   1.02    0.72    0.72    0.56    0.32    0.20    0.11    0.07    0.02    0.00    0.00      538     150
 2011 155    64    49   11.6      5  3.672   1048   1326    509    271   2374   3856    373   136.6  0.132   1482    220  0.000  0.000  0.000  0.000  0.000  0.000  0.000    3.49  34.36   0.38      0   1482  350.4   1.01   0.60    0.0   1.02    0.71    0.71    0.54    0.32    0.20    0.11    0.06    0.02    0.00    0.00      562     156
 2011 156    65    50   11.6      5  3.573   1017   1308    651    265   2325   4009    430   151.2  0.162   1684    231  0.000  0.000  0.000  0.000  0.000  0.000  0.000    3.41  38.63   0.42      0   1684  351.4   1.01   0.60    0.0   1.04    0.69    0.69    0.53    0.31    0.20    0.10    0.06    0.02    0.00    0.00      590     162
 2011 157    66    51   11.6      5  3.467    985   1291    811    259   2277   4161    487   166.5  0.195   1884    240  0.000  0.000  0.000  0.000  0.000  0.000  0.000    3.32  43.04   0.45      0   1884  351.9   1.01   0.60    0.0   1.05    0.68    0.68    0.52    0.30    0.19    0.10    0.06    0.02    0.00    0.00      619     167
 2011 158    67    52   11.6      5  3.360    952   1272    996    253   2223   4313    544   183.2  0.231   2090    245  0.000  0.000  0.000  0.000  0.000  0.000  0.000    3.23  47.66   0.48      0   2090  353.0   1.01   0.60    0.0   1.07    0.66    0.66    0.51    0.30    0.19    0.10    0.06    0.01    0.00    0.00      649     173
 2011 159    68    53   11.6      5  3.249    918   1254   1200    247   2172   4467    597   200.9  0.269   2294    247  0.000  0.000  0.000  0.000  0.000  0.000  0.000    3.13  52.29   0.51      0   2294  353.8   1.01   0.60    0.0   1.09    0.65    0.65    0.50    0.29    0.18    0.10    0.06    0.01    0.00    0.00      680     178
 2011 160    69    54   11.6      7  3.145    889   1242   1417    241   2131   4610    630   225.2  0.307   2479    241  0.000  0.000  0.000  0.000  0.000  0.000  0.000    3.01  57.18   0.54      0   2479  354.0   1.01   0.60    0.0   1.09    0.64    0.64    0.49    0.28    0.18    0.10    0.06    0.01    0.00    0.00      727     184
 2011 161    70    55   11.6      7  2.323    657   1176   1620    235   1833   4498    635   255.1  0.360   2665    213  0.000  0.000  0.000  0.000  0.000  0.000  0.000    2.80  60.81   0.59      0   2665  353.3   1.01   0.60    0.0   1.09    0.62    0.62    0.48    0.28    0.18    0.09    0.06    0.01    0.00    0.00     1023     189
 2011 162    71    56   11.6      7  1.719    487   1123   1793    230   1610   4438    635   282.2  0.404   2828    201  0.000  0.000  0.000  0.000  0.000  0.000  0.000    2.62  63.38   0.64      0   2828  353.3   1.01   0.60    0.0   1.09    0.61    0.61    0.47    0.27    0.17    0.09    0.06    0.01    0.00    0.00     1237     194
 2011 163    72    57   11.6      7  1.274    361   1085   1930    225   1445   4403    635   303.8  0.438   2958    191  0.000  0.000  0.000  0.000  0.000  0.000  0.000    2.46  65.24   0.67      0   2958  353.3   1.01   0.60    0.0   1.09    0.59    0.59    0.46    0.27    0.17    0.09    0.05    0.01    0.00    0.00     1395     199
 2011 164    73    58   11.6      7  0.945    267   1052   2039    220   1318   4377    635   321.0  0.466   3059    185  0.000  0.000  0.000  0.000  0.000  0.000  0.000    2.32  66.65   0.70      0   3059  354.1   1.01   0.60    0.0   1.09    0.58    0.58    0.45    0.26    0.17    0.09    0.05    0.01    0.00    0.00     1513     204
 2011 165    74    59   11.6      7  0.702    197   1023   2121    214   1221   4353    635   334.0  0.487   3133    182  0.000  0.000  0.000  0.000  0.000  0.000  0.000    2.20  67.71   0.72      0   3133  355.6   1.01   0.60    0.0   1.09    0.57    0.57    0.44    0.25    0.16    0.09    0.05    0.01    0.00    0.00     1599     209
 2011 166    75    60   11.6      7  0.522    146   1000   2182    209   1146   4332    635   343.5  0.504   3185    181  0.000  0.000  0.000  0.000  0.000  0.000  0.000    2.08  68.50   0.74      0   3185  357.2   1.01   0.60    0.0   1.09    0.56    0.56    0.43    0.25    0.16    0.08    0.05    0.01    0.00    0.00     1663     214
 2011 167    76    61   11.6      7  0.388    108    982   2225    205   1090   4311    635   350.3  0.516   3221    181  0.000  0.000  0.000  0.000  0.000  0.000  0.000    1.98  69.08   0.75      0   3221  358.8   1.01   0.60    0.0   1.10    0.54    0.54    0.42    0.24    0.15    0.08    0.05    0.01    0.00    0.00     1711     218
 2011 168    77    62   11.6      7  0.290     80    967   2254    200   1047   4291    635   354.9  0.525   3244    181  0.000  0.000  0.000  0.000  0.000  0.000  0.000    1.91  69.48   0.76      0   3244  360.3   1.01   0.60    0.0   1.10    0.53    0.53    0.41    0.24    0.15    0.08    0.05    0.01    0.00    0.00     1746     223
 2011 169    78    63   11.6      8  0.216     60    955   2271    196   1015   4272    635   357.5  0.532   3257    181  0.000  0.000  0.000  0.000  0.000  0.000  0.000    1.86  69.74   0.76      0   3257  361.7   1.01   0.60    0.0   1.10    0.52    0.52    0.40    0.23    0.15    0.08    0.05    0.01    0.00    0.00     1772     227
