*SIMULATION OVERVIEW FILE

*DSSAT Cropping System Model Ver. 4.6.1.000 -release      JUL 11, 2017; 16:24:48
                                                                                
*RUN   1        : SIM                       CRGRO046 4\000004    1              
 MODEL          : CRGRO046 - Dry bean                                           
 EXPERIMENT     : 4\000004 BN PALMIRA_ANALISIS SENSIBILIDAD                     
 DATA PATH      : D:\B\0\00000                                                  
 TREATMENT  1   : SIM                       CRGRO046                            
                                                                                
                                                                                
 CROP           : Dry bean         CULTIVAR : Jatu Rong        ECOTYPE :ANDIND  
 STARTING DATE  : APR  1 1980                                                   
 PLANTING DATE  : AUTOMATIC PLANTING PLANTS/m2 : 26.6     ROW SPACING :  60.cm  
 WEATHER        : PALM   1980                                                   
 SOIL           : CCPA000030     TEXTURE : C     -   Silty Clay Loam            
 WATER BALANCE  : NOT SIMULATED ; NO H2O-STRESS                                 
 IRRIGATION     :                                                               
 NITROGEN BAL.  : NOT SIMULATED ; NO N-STRESS                                   
 N-FERTILIZER   :                                                               
 RESIDUE/MANURE :                                                               
 ENVIRONM. OPT. : DAYL=    0.00  SRAD=    0.00  TMAX=    0.00  TMIN=    0.00    
                  RAIN=    0.00  CO2 =    0.00  DEW =    0.00  WIND=    0.00    
 SIMULATION OPT : WATER   :N  NITROGEN:N  N-FIX:N  PHOSPH :N  PESTS  :N         
                  PHOTO   :L  ET      :R  INFIL:S  HYDROL :R  SOM    :G         
                  CO2 338ppm  NSWIT   :1  EVAP :S  SOIL   :2  STEMP  :D         
 MANAGEMENT OPT : PLANTING:A  IRRIG   :A  FERT :D  RESIDUE:N  HARVEST:M         
                  WEATHER :M  TILLAGE :N                                        
                                                                                
*SUMMARY OF SOIL AND GENETIC INPUT PARAMETERS                                   
                                                                                
 Dry bean   CULTIVAR :000004-Jatu Rong          ECOTYPE :ANDIND                 
 CSDVAR :12.17  PPSEN  : 0.05  EMG-FLW:21.00  FLW-FSD: 9.00  FSD-PHM : 11.00    
 WTPSD  :0.600  SDPDVR : 3.50  SDFDUR :15.00  PODDUR :10.00  XFRUIT  :  1.00    
 THRESH : 78.0  SDPRO  :0.235  SDLIP   : 0.030                                  


*SIMULATED CROP AND SOIL STATUS AT MAIN DEVELOPMENT STAGES

 RUN NO.     1     SIM                     

        CROP GROWTH     BIOMASS         LEAF   CROP N     STRESS      STRESS                                           
   DATE  AGE STAGE        kg/ha    LAI   NUM  kg/ha  %   H2O  Nitr Phos1 Phos2  RSTG                                   
 ------  --- ----------   -----  -----  ----  ---  ---  ----  ----  ----  ----  ----                                   
  1 APR    0 Start Sim        0   0.00   0.0    0  0.0  0.00  0.00  0.00  0.00     0
 15 APR    0 Sowing           0   0.00   0.0    0  0.0  0.00  0.00  0.00  0.00     0
 20 APR    5 Emergence       44   0.08   0.2    1  3.4  0.00  0.00  0.00  0.00     0
 20 APR    5 End Juven.      44   0.08   0.2    1  3.4  0.00  0.00  0.00  0.00     0
 23 APR    8 Unifoliate      49   0.09   1.1    2  3.3  0.00  0.64  0.00  0.00     0
 25 APR   10 Flower Ind      56   0.10   1.7    2  3.2  0.00  0.41  0.00  0.00     0
 12 MAY   27 First Flwr     662   1.74   6.8   21  3.1  0.00  0.01  0.00  0.00     1
 15 MAY   30 First Pod      887   2.22   7.7   28  3.2  0.00  0.00  0.00  0.00     3
 22 MAY   37 First Seed    1708   2.73   9.8   52  3.0  0.00  0.00  0.00  0.00     5
 24 MAY   39 End Msnode    1971   2.75  10.4   59  3.0  0.00  0.00  0.00  0.00     5
 29 MAY   44 End Pod       2602   2.53  10.4   78  3.0  0.00  0.00  0.00  0.00     5
  1 JUN   47 End Leaf      2950   2.32  10.4   86  2.9  0.00  0.00  0.00  0.00     5
  3 JUN   49 Phys. Mat     3166   2.19  10.4   91  2.9  0.00  0.00  0.00  0.00     7
 12 JUN   58 Harv. Mat     2928   0.15  10.4   84  2.9  0.00  0.00  0.00  0.00     8
 12 JUN   58 Harvest       2928   0.15  10.4   84  2.9  0.00  0.00  0.00  0.00     8


*MAIN GROWTH AND DEVELOPMENT VARIABLES

@     VARIABLE                                         SIMULATED     MEASURED
      --------                                         ---------     --------
      Anthesis day (dap)                                      27          -99
      First pod day (dap)                                     30          -99
      First seed day (dap)                                    37          -99
      Physiological maturity day (dap)                        49          -99
      Yield at harvest maturity (kg [dm]/ha)                1628          -99
      Pod/Ear/Panicle weight at maturity (kg [dm]/ha)       2338          -99
      Number at maturity (no/m2)                             461          -99
      Unit wt at maturity (g [dm]/unit)                   0.3534          -99
      Number at maturity (no/unit)                          3.50          -99
      Tops weight at maturity (kg [dm]/ha)                  2928          -99
      By-product produced (stalk) at maturity (kg[dm]/ha    1300          -99
      Leaf area index, maximum                              2.75          -99
      Harvest index at maturity                            0.556          -99
      Threshing % at maturity                              69.61          -99
      Grain N at maturity (kg/ha)                             61          -99
      Tops N at maturity (kg/ha)                              84          -99
      Stem N at maturity (kg/ha)                               7          -99
      Grain N at maturity (%)                               3.76          -99
      Tops weight at anthesis (kg [dm]/ha)                   662          -99
      Tops N at anthesis (kg/ha)                              21          -99
      Leaf number per stem at maturity                     10.37          -99
      Grain oil at maturity (%)                             2.89          -99
      Canopy height (m)                                     0.86          -99
      Harvest maturity day (dap)                              58          -99
      Emergence day (dap)                                      5          -99


*ENVIRONMENTAL AND STRESS FACTORS

 |-----Development Phase------|--------------------------------------Environment--------------------------------------|-----------------Stress-----------------|
                              |---------------Average--------------|-----Cumulative-----|--------Count of days--------|          (0=Min, 1=Max Stress)         |
                         Time  Temp  Temp  Temp Solar Photop                Evapo    Pot TMIN TMIN TMAX TMAX TMAX RAIN|----Water----|---Nitrogen--|-Phosphorus-|
                         Span   Max   Min  Mean   Rad  [day]    CO2   Rain  Trans     ET   <    <    >    >    >    >   Photo         Photo         Photo
                         days    øC    øC    øC MJ/m2     hr    ppm     mm     mm     mm  0øC  2øC 30øC 32øC 34øC  0mm  synth Growth  synth Growth  synth Growth
----------------------------------------------------------------------------------------------------------------------------------------------------------------
 Emergence -First Flower   22  30.0  19.4  24.7  19.0  12.13  338.3   46.5    0.0    0.0    0    0   12    2    0   10  0.000  0.000  0.000  0.134  0.000  0.000
 First Flower-First Seed   10  29.2  19.6  24.4  17.6  12.17  338.5   10.8    0.0    0.0    0    0    4    0    0    4  0.000  0.000  0.000  0.000  0.000  0.000
 First Seed - Phys. Mat.   12  28.9  19.2  24.1  17.5  12.19  338.5   37.0    0.0    0.0    0    0    4    0    0    6  0.000  0.000  0.000  0.000  0.000  0.000
 Emergence  - Phys. Mat.   44  29.5  19.4  24.5  18.3  12.15  338.4   94.3    0.0    0.0    0    0   20    2    0   20  0.000  0.000  0.000  0.067  0.000  0.000


 Planting to Harvest       72  29.6  19.4  24.5  18.5  12.14  338.4  209.4    0.0    0.0    0    0   35    2    0   29  0.000  0.000  0.000  0.041  0.000  0.000
----------------------------------------------------------------------------------------------------------------------------------------------------------------

--------------------------------------------------------------------------------------------------------------

                  Dry bean YIELD :     1628 kg/ha    [Dry weight] 

**************************************************************************************************************

*DSSAT Cropping System Model Ver. 4.6.1.000 -release      JUL 11, 2017; 16:24:48
                                                                                
*RUN   2        : SIM                       CRGRO046 4\000004    1              
 MODEL          : CRGRO046 - Dry bean                                           
 EXPERIMENT     : 4\000004 BN PALMIRA_ANALISIS SENSIBILIDAD                     
 DATA PATH      : D:\B\0\00000                                                  
 TREATMENT  1   : SIM                       CRGRO046                            
                                                                                
                                                                                
 CROP           : Dry bean         CULTIVAR : Jatu Rong        ECOTYPE :ANDIND  
 STARTING DATE  : APR  2 1981                                                   
 PLANTING DATE  : APR 16 1981        PLANTS/m2 : 26.6     ROW SPACING :  60.cm  
 WEATHER        : PALM8034                                                      
 SOIL           : CCPA000030     TEXTURE : C     -   Silty Clay Loam            
 WATER BALANCE  : NOT SIMULATED ; NO H2O-STRESS                                 
 IRRIGATION     :                                                               
 NITROGEN BAL.  : NOT SIMULATED ; NO N-STRESS                                   
 N-FERTILIZER   :                                                               
 RESIDUE/MANURE :                                                               
 ENVIRONM. OPT. : DAYL=    0.00  SRAD=    0.00  TMAX=    0.00  TMIN=    0.00    
                  RAIN=    0.00  CO2 =    0.00  DEW =    0.00  WIND=    0.00    
 SIMULATION OPT : WATER   :N  NITROGEN:N  N-FIX:N  PHOSPH :N  PESTS  :N         
                  PHOTO   :L  ET      :R  INFIL:S  HYDROL :R  SOM    :G         
                  CO2 340ppm  NSWIT   :1  EVAP :S  SOIL   :2  STEMP  :D         
 MANAGEMENT OPT : PLANTING:A  IRRIG   :A  FERT :D  RESIDUE:N  HARVEST:M         
                  WEATHER :M  TILLAGE :N                                        
                                                                                
*SUMMARY OF SOIL AND GENETIC INPUT PARAMETERS                                   
                                                                                
 Dry bean   CULTIVAR :000004-Jatu Rong          ECOTYPE :ANDIND                 
 CSDVAR :12.17  PPSEN  : 0.05  EMG-FLW:21.00  FLW-FSD: 9.00  FSD-PHM : 11.00    
 WTPSD  :0.600  SDPDVR : 3.50  SDFDUR :15.00  PODDUR :10.00  XFRUIT  :  1.00    
 THRESH : 78.0  SDPRO  :0.235  SDLIP   : 0.030                                  


*SIMULATED CROP AND SOIL STATUS AT MAIN DEVELOPMENT STAGES

 RUN NO.     2     SIM                     

        CROP GROWTH     BIOMASS         LEAF   CROP N     STRESS      STRESS                                           
   DATE  AGE STAGE        kg/ha    LAI   NUM  kg/ha  %   H2O  Nitr Phos1 Phos2  RSTG                                   
 ------  --- ----------   -----  -----  ----  ---  ---  ----  ----  ----  ----  ----                                   
  2 APR    0 Start Sim        0   0.00   0.0    0  0.0  0.00  0.00  0.00  0.00     0
 16 APR    0 Sowing           0   0.00   0.0    0  0.0  0.00  0.00  0.00  0.00     0
 21 APR    5 Emergence       44   0.08   0.2    1  3.4  0.00  0.00  0.00  0.00     0
 21 APR    5 End Juven.      44   0.08   0.2    1  3.4  0.00  0.00  0.00  0.00     0
 24 APR    8 Unifoliate      48   0.09   1.1    2  3.3  0.00  0.66  0.00  0.00     0
 26 APR   10 Flower Ind      54   0.10   1.7    2  3.2  0.00  0.47  0.00  0.00     0
 14 MAY   28 First Flwr     669   1.80   6.8   21  3.1  0.00  0.02  0.00  0.00     1
 17 MAY   31 First Pod      909   2.22   7.6   29  3.1  0.00  0.00  0.00  0.00     3
 24 MAY   38 First Seed    1727   2.72   9.7   52  3.0  0.00  0.00  0.00  0.00     5
 26 MAY   40 End Msnode    1986   2.74  10.3   60  3.0  0.00  0.00  0.00  0.00     5
 31 MAY   45 End Pod       2616   2.54  10.3   77  2.9  0.00  0.00  0.00  0.00     5
  3 JUN   48 End Leaf      2964   2.33  10.3   86  2.9  0.00  0.00  0.00  0.00     5
  5 JUN   50 Phys. Mat     3201   2.18  10.3   91  2.8  0.00  0.00  0.00  0.00     7
 14 JUN   59 Harv. Mat     2919   0.15  10.3   81  2.8  0.00  0.00  0.00  0.00     8
 14 JUN   59 Harvest       2919   0.15  10.3   81  2.8  0.00  0.00  0.00  0.00     8


*MAIN GROWTH AND DEVELOPMENT VARIABLES

@     VARIABLE                                         SIMULATED     MEASURED
      --------                                         ---------     --------
      Anthesis day (dap)                                      28          -99
      First pod day (dap)                                     31          -99
      First seed day (dap)                                    38          -99
      Physiological maturity day (dap)                        50          -99
      Yield at harvest maturity (kg [dm]/ha)                1491          -99
      Pod/Ear/Panicle weight at maturity (kg [dm]/ha)       2304          -99
      Number at maturity (no/m2)                             507          -99
      Unit wt at maturity (g [dm]/unit)                   0.2944          -99
      Number at maturity (no/unit)                          3.50          -99
      Tops weight at maturity (kg [dm]/ha)                  2919          -99
      By-product produced (stalk) at maturity (kg[dm]/ha    1430          -99
      Leaf area index, maximum                              2.74          -99
      Harvest index at maturity                            0.511          -99
      Threshing % at maturity                              64.74          -99
      Grain N at maturity (kg/ha)                             56          -99
      Tops N at maturity (kg/ha)                              81          -99
      Stem N at maturity (kg/ha)                               7          -99
      Grain N at maturity (%)                               3.76          -99
      Tops weight at anthesis (kg [dm]/ha)                   669          -99
      Tops N at anthesis (kg/ha)                              21          -99
      Leaf number per stem at maturity                     10.28          -99
      Grain oil at maturity (%)                             2.91          -99
      Canopy height (m)                                     0.87          -99
      Harvest maturity day (dap)                              59          -99
      Emergence day (dap)                                      5          -99


*ENVIRONMENTAL AND STRESS FACTORS

 |-----Development Phase------|--------------------------------------Environment--------------------------------------|-----------------Stress-----------------|
                              |---------------Average--------------|-----Cumulative-----|--------Count of days--------|          (0=Min, 1=Max Stress)         |
                         Time  Temp  Temp  Temp Solar Photop                Evapo    Pot TMIN TMIN TMAX TMAX TMAX RAIN|----Water----|---Nitrogen--|-Phosphorus-|
                         Span   Max   Min  Mean   Rad  [day]    CO2   Rain  Trans     ET   <    <    >    >    >    >   Photo         Photo         Photo
                         days    øC    øC    øC MJ/m2     hr    ppm     mm     mm     mm  0øC  2øC 30øC 32øC 34øC  0mm  synth Growth  synth Growth  synth Growth
----------------------------------------------------------------------------------------------------------------------------------------------------------------
 Emergence -First Flower   23  28.1  19.0  23.5  17.6  12.13  339.7   93.8    0.0    0.0    0    0    1    0    0   16  0.000  0.000  0.000  0.139  0.000  0.000
 First Flower-First Seed   10  29.1  19.1  24.1  18.0  12.17  339.8   81.6    0.0    0.0    0    0    4    0    0    6  0.000  0.000  0.000  0.000  0.000  0.000
 First Seed - Phys. Mat.   12  28.7  19.2  24.0  17.4  12.19  339.8   35.6    0.0    0.0    0    0    2    0    0    6  0.000  0.000  0.000  0.000  0.000  0.000
 Emergence  - Phys. Mat.   45  28.5  19.1  23.8  17.6  12.15  339.8  211.0    0.0    0.0    0    0    7    0    0   28  0.000  0.000  0.000  0.071  0.000  0.000


 Planting to Harvest       73  28.6  19.2  23.9  17.7  12.14  339.7  398.5    0.0    0.0    0    0   14    0    0   44  0.000  0.000  0.000  0.044  0.000  0.000
----------------------------------------------------------------------------------------------------------------------------------------------------------------

--------------------------------------------------------------------------------------------------------------

                  Dry bean YIELD :     1491 kg/ha    [Dry weight] 

**************************************************************************************************************

*DSSAT Cropping System Model Ver. 4.6.1.000 -release      JUL 11, 2017; 16:24:48
                                                                                
*RUN   3        : SIM                       CRGRO046 4\000004    1              
 MODEL          : CRGRO046 - Dry bean                                           
 EXPERIMENT     : 4\000004 BN PALMIRA_ANALISIS SENSIBILIDAD                     
 DATA PATH      : D:\B\0\00000                                                  
 TREATMENT  1   : SIM                       CRGRO046                            
                                                                                
                                                                                
 CROP           : Dry bean         CULTIVAR : Jatu Rong        ECOTYPE :ANDIND  
 STARTING DATE  : APR  2 1982                                                   
 PLANTING DATE  : APR 16 1982        PLANTS/m2 : 26.6     ROW SPACING :  60.cm  
 WEATHER        : PALM8034                                                      
 SOIL           : CCPA000030     TEXTURE : C     -   Silty Clay Loam            
 WATER BALANCE  : NOT SIMULATED ; NO H2O-STRESS                                 
 IRRIGATION     :                                                               
 NITROGEN BAL.  : NOT SIMULATED ; NO N-STRESS                                   
 N-FERTILIZER   :                                                               
 RESIDUE/MANURE :                                                               
 ENVIRONM. OPT. : DAYL=    0.00  SRAD=    0.00  TMAX=    0.00  TMIN=    0.00    
                  RAIN=    0.00  CO2 =    0.00  DEW =    0.00  WIND=    0.00    
 SIMULATION OPT : WATER   :N  NITROGEN:N  N-FIX:N  PHOSPH :N  PESTS  :N         
                  PHOTO   :L  ET      :R  INFIL:S  HYDROL :R  SOM    :G         
                  CO2 341ppm  NSWIT   :1  EVAP :S  SOIL   :2  STEMP  :D         
 MANAGEMENT OPT : PLANTING:A  IRRIG   :A  FERT :D  RESIDUE:N  HARVEST:M         
                  WEATHER :M  TILLAGE :N                                        
                                                                                
*SUMMARY OF SOIL AND GENETIC INPUT PARAMETERS                                   
                                                                                
 Dry bean   CULTIVAR :000004-Jatu Rong          ECOTYPE :ANDIND                 
 CSDVAR :12.17  PPSEN  : 0.05  EMG-FLW:21.00  FLW-FSD: 9.00  FSD-PHM : 11.00    
 WTPSD  :0.600  SDPDVR : 3.50  SDFDUR :15.00  PODDUR :10.00  XFRUIT  :  1.00    
 THRESH : 78.0  SDPRO  :0.235  SDLIP   : 0.030                                  


*SIMULATED CROP AND SOIL STATUS AT MAIN DEVELOPMENT STAGES

 RUN NO.     3     SIM                     

        CROP GROWTH     BIOMASS         LEAF   CROP N     STRESS      STRESS                                           
   DATE  AGE STAGE        kg/ha    LAI   NUM  kg/ha  %   H2O  Nitr Phos1 Phos2  RSTG                                   
 ------  --- ----------   -----  -----  ----  ---  ---  ----  ----  ----  ----  ----                                   
  2 APR    0 Start Sim        0   0.00   0.0    0  0.0  0.00  0.00  0.00  0.00     0
 16 APR    0 Sowing           0   0.00   0.0    0  0.0  0.00  0.00  0.00  0.00     0
 21 APR    5 Emergence       44   0.08   0.2    1  3.4  0.00  0.00  0.00  0.00     0
 21 APR    5 End Juven.      44   0.08   0.2    1  3.4  0.00  0.00  0.00  0.00     0
 24 APR    8 Unifoliate      49   0.09   1.1    2  3.3  0.00  0.65  0.00  0.00     0
 26 APR   10 Flower Ind      55   0.10   1.7    2  3.2  0.00  0.44  0.00  0.00     0
 13 MAY   27 First Flwr     631   1.71   6.7   19  3.1  0.00  0.01  0.00  0.00     1
 16 MAY   30 First Pod      876   2.15   7.6   28  3.2  0.00  0.00  0.00  0.00     3
 23 MAY   37 First Seed    1649   2.69   9.6   50  3.1  0.00  0.00  0.00  0.00     5
 25 MAY   39 End Msnode    1894   2.71  10.2   57  3.0  0.00  0.00  0.00  0.00     5
 30 MAY   44 End Pod       2513   2.53  10.2   75  3.0  0.00  0.00  0.00  0.00     5
  2 JUN   47 End Leaf      2869   2.32  10.2   84  2.9  0.00  0.00  0.00  0.00     5
  5 JUN   50 Phys. Mat     3188   2.10  10.2   91  2.9  0.00  0.00  0.00  0.00     7
 14 JUN   59 Harv. Mat     2974   0.14  10.2   85  2.9  0.00  0.00  0.00  0.00     8
 14 JUN   59 Harvest       2974   0.14  10.2   85  2.9  0.00  0.00  0.00  0.00     8


*MAIN GROWTH AND DEVELOPMENT VARIABLES

@     VARIABLE                                         SIMULATED     MEASURED
      --------                                         ---------     --------
      Anthesis day (dap)                                      27          -99
      First pod day (dap)                                     30          -99
      First seed day (dap)                                    37          -99
      Physiological maturity day (dap)                        50          -99
      Yield at harvest maturity (kg [dm]/ha)                1628          -99
      Pod/Ear/Panicle weight at maturity (kg [dm]/ha)       2413          -99
      Number at maturity (no/m2)                             504          -99
      Unit wt at maturity (g [dm]/unit)                   0.3228          -99
      Number at maturity (no/unit)                          3.50          -99
      Tops weight at maturity (kg [dm]/ha)                  2974          -99
      By-product produced (stalk) at maturity (kg[dm]/ha    1350          -99
      Leaf area index, maximum                              2.71          -99
      Harvest index at maturity                            0.547          -99
      Threshing % at maturity                              67.48          -99
      Grain N at maturity (kg/ha)                             62          -99
      Tops N at maturity (kg/ha)                              85          -99
      Stem N at maturity (kg/ha)                               6          -99
      Grain N at maturity (%)                               3.80          -99
      Tops weight at anthesis (kg [dm]/ha)                   631          -99
      Tops N at anthesis (kg/ha)                              19          -99
      Leaf number per stem at maturity                     10.17          -99
      Grain oil at maturity (%)                             2.85          -99
      Canopy height (m)                                     0.87          -99
      Harvest maturity day (dap)                              59          -99
      Emergence day (dap)                                      5          -99


*ENVIRONMENTAL AND STRESS FACTORS

 |-----Development Phase------|--------------------------------------Environment--------------------------------------|-----------------Stress-----------------|
                              |---------------Average--------------|-----Cumulative-----|--------Count of days--------|          (0=Min, 1=Max Stress)         |
                         Time  Temp  Temp  Temp Solar Photop                Evapo    Pot TMIN TMIN TMAX TMAX TMAX RAIN|----Water----|---Nitrogen--|-Phosphorus-|
                         Span   Max   Min  Mean   Rad  [day]    CO2   Rain  Trans     ET   <    <    >    >    >    >   Photo         Photo         Photo
                         days    øC    øC    øC MJ/m2     hr    ppm     mm     mm     mm  0øC  2øC 30øC 32øC 34øC  0mm  synth Growth  synth Growth  synth Growth
----------------------------------------------------------------------------------------------------------------------------------------------------------------
 Emergence -First Flower   22  29.3  19.3  24.3  18.4  12.13  340.9   57.5    0.0    0.0    0    0    8    1    0    8  0.000  0.000  0.000  0.137  0.000  0.000
 First Flower-First Seed   10  28.7  19.2  24.0  17.6  12.17  341.0   55.9    0.0    0.0    0    0    3    1    0    5  0.000  0.000  0.000  0.000  0.000  0.000
 First Seed - Phys. Mat.   13  28.4  19.6  24.0  16.7  12.19  341.0   13.7    0.0    0.0    0    0    2    0    0    4  0.000  0.000  0.000  0.000  0.000  0.000
 Emergence  - Phys. Mat.   45  28.9  19.4  24.2  17.7  12.15  340.9  127.1    0.0    0.0    0    0   13    2    0   17  0.000  0.000  0.000  0.067  0.000  0.000


 Planting to Harvest       73  29.0  19.4  24.2  18.0  12.14  340.9  260.9    0.0    0.0    0    0   21    2    0   29  0.000  0.000  0.000  0.041  0.000  0.000
----------------------------------------------------------------------------------------------------------------------------------------------------------------

--------------------------------------------------------------------------------------------------------------

                  Dry bean YIELD :     1628 kg/ha    [Dry weight] 

**************************************************************************************************************

*DSSAT Cropping System Model Ver. 4.6.1.000 -release      JUL 11, 2017; 16:24:48
                                                                                
*RUN   4        : SIM                       CRGRO046 4\000004    1              
 MODEL          : CRGRO046 - Dry bean                                           
 EXPERIMENT     : 4\000004 BN PALMIRA_ANALISIS SENSIBILIDAD                     
 DATA PATH      : D:\B\0\00000                                                  
 TREATMENT  1   : SIM                       CRGRO046                            
                                                                                
                                                                                
 CROP           : Dry bean         CULTIVAR : Jatu Rong        ECOTYPE :ANDIND  
 STARTING DATE  : APR  2 1983                                                   
 PLANTING DATE  : APR 16 1983        PLANTS/m2 : 26.6     ROW SPACING :  60.cm  
 WEATHER        : PALM8034                                                      
 SOIL           : CCPA000030     TEXTURE : C     -   Silty Clay Loam            
 WATER BALANCE  : NOT SIMULATED ; NO H2O-STRESS                                 
 IRRIGATION     :                                                               
 NITROGEN BAL.  : NOT SIMULATED ; NO N-STRESS                                   
 N-FERTILIZER   :                                                               
 RESIDUE/MANURE :                                                               
 ENVIRONM. OPT. : DAYL=    0.00  SRAD=    0.00  TMAX=    0.00  TMIN=    0.00    
                  RAIN=    0.00  CO2 =    0.00  DEW =    0.00  WIND=    0.00    
 SIMULATION OPT : WATER   :N  NITROGEN:N  N-FIX:N  PHOSPH :N  PESTS  :N         
                  PHOTO   :L  ET      :R  INFIL:S  HYDROL :R  SOM    :G         
                  CO2 342ppm  NSWIT   :1  EVAP :S  SOIL   :2  STEMP  :D         
 MANAGEMENT OPT : PLANTING:A  IRRIG   :A  FERT :D  RESIDUE:N  HARVEST:M         
                  WEATHER :M  TILLAGE :N                                        
                                                                                
*SUMMARY OF SOIL AND GENETIC INPUT PARAMETERS                                   
                                                                                
 Dry bean   CULTIVAR :000004-Jatu Rong          ECOTYPE :ANDIND                 
 CSDVAR :12.17  PPSEN  : 0.05  EMG-FLW:21.00  FLW-FSD: 9.00  FSD-PHM : 11.00    
 WTPSD  :0.600  SDPDVR : 3.50  SDFDUR :15.00  PODDUR :10.00  XFRUIT  :  1.00    
 THRESH : 78.0  SDPRO  :0.235  SDLIP   : 0.030                                  


*SIMULATED CROP AND SOIL STATUS AT MAIN DEVELOPMENT STAGES

 RUN NO.     4     SIM                     

        CROP GROWTH     BIOMASS         LEAF   CROP N     STRESS      STRESS                                           
   DATE  AGE STAGE        kg/ha    LAI   NUM  kg/ha  %   H2O  Nitr Phos1 Phos2  RSTG                                   
 ------  --- ----------   -----  -----  ----  ---  ---  ----  ----  ----  ----  ----                                   
  2 APR    0 Start Sim        0   0.00   0.0    0  0.0  0.00  0.00  0.00  0.00     0
 16 APR    0 Sowing           0   0.00   0.0    0  0.0  0.00  0.00  0.00  0.00     0
 21 APR    5 Emergence       44   0.08   0.2    1  3.4  0.00  0.00  0.00  0.00     0
 21 APR    5 End Juven.      44   0.08   0.2    1  3.4  0.00  0.00  0.00  0.00     0
 24 APR    8 Unifoliate      48   0.09   1.1    2  3.3  0.00  0.66  0.00  0.00     0
 26 APR   10 Flower Ind      55   0.10   1.7    2  3.2  0.00  0.43  0.00  0.00     0
 13 MAY   27 First Flwr     657   1.77   6.8   20  3.1  0.00  0.01  0.00  0.00     1
 16 MAY   30 First Pod      904   2.20   7.7   29  3.2  0.00  0.00  0.00  0.00     3
 23 MAY   37 First Seed    1731   2.72   9.8   53  3.0  0.00  0.00  0.00  0.00     5
 25 MAY   39 End Msnode    2000   2.74  10.4   60  3.0  0.00  0.00  0.00  0.00     5
 30 MAY   44 End Pod       2627   2.53  10.4   78  3.0  0.00  0.00  0.00  0.00     5
  1 JUN   46 End Leaf      2871   2.39  10.4   84  2.9  0.00  0.00  0.00  0.00     5
  4 JUN   49 Phys. Mat     3204   2.16  10.4   92  2.9  0.00  0.00  0.00  0.00     7
 13 JUN   58 Harv. Mat     2956   0.15  10.4   83  2.8  0.00  0.00  0.00  0.00     8
 13 JUN   58 Harvest       2956   0.15  10.4   83  2.8  0.00  0.00  0.00  0.00     8


*MAIN GROWTH AND DEVELOPMENT VARIABLES

@     VARIABLE                                         SIMULATED     MEASURED
      --------                                         ---------     --------
      Anthesis day (dap)                                      27          -99
      First pod day (dap)                                     30          -99
      First seed day (dap)                                    37          -99
      Physiological maturity day (dap)                        49          -99
      Yield at harvest maturity (kg [dm]/ha)                1569          -99
      Pod/Ear/Panicle weight at maturity (kg [dm]/ha)       2345          -99
      Number at maturity (no/m2)                             504          -99
      Unit wt at maturity (g [dm]/unit)                   0.3111          -99
      Number at maturity (no/unit)                          3.50          -99
      Tops weight at maturity (kg [dm]/ha)                  2956          -99
      By-product produced (stalk) at maturity (kg[dm]/ha    1390          -99
      Leaf area index, maximum                              2.74          -99
      Harvest index at maturity                            0.531          -99
      Threshing % at maturity                              66.90          -99
      Grain N at maturity (kg/ha)                             59          -99
      Tops N at maturity (kg/ha)                              83          -99
      Stem N at maturity (kg/ha)                               7          -99
      Grain N at maturity (%)                               3.78          -99
      Tops weight at anthesis (kg [dm]/ha)                   657          -99
      Tops N at anthesis (kg/ha)                              20          -99
      Leaf number per stem at maturity                     10.40          -99
      Grain oil at maturity (%)                             2.88          -99
      Canopy height (m)                                     0.87          -99
      Harvest maturity day (dap)                              58          -99
      Emergence day (dap)                                      5          -99


*ENVIRONMENTAL AND STRESS FACTORS

 |-----Development Phase------|--------------------------------------Environment--------------------------------------|-----------------Stress-----------------|
                              |---------------Average--------------|-----Cumulative-----|--------Count of days--------|          (0=Min, 1=Max Stress)         |
                         Time  Temp  Temp  Temp Solar Photop                Evapo    Pot TMIN TMIN TMAX TMAX TMAX RAIN|----Water----|---Nitrogen--|-Phosphorus-|
                         Span   Max   Min  Mean   Rad  [day]    CO2   Rain  Trans     ET   <    <    >    >    >    >   Photo         Photo         Photo
                         days    øC    øC    øC MJ/m2     hr    ppm     mm     mm     mm  0øC  2øC 30øC 32øC 34øC  0mm  synth Growth  synth Growth  synth Growth
----------------------------------------------------------------------------------------------------------------------------------------------------------------
 Emergence -First Flower   22  29.8  19.8  24.8  18.4  12.13  342.3   40.2    0.0    0.0    0    0   11    0    0    7  0.000  0.000  0.000  0.138  0.000  0.000
 First Flower-First Seed   10  29.4  19.2  24.3  18.2  12.17  342.5   65.4    0.0    0.0    0    0    3    0    0    7  0.000  0.000  0.000  0.000  0.000  0.000
 First Seed - Phys. Mat.   12  29.6  19.7  24.6  17.7  12.19  342.5    8.3    0.0    0.0    0    0    5    0    0    3  0.000  0.000  0.000  0.000  0.000  0.000
 Emergence  - Phys. Mat.   44  29.6  19.7  24.6  18.2  12.15  342.4  113.9    0.0    0.0    0    0   19    0    0   17  0.000  0.000  0.000  0.069  0.000  0.000


 Planting to Harvest       72  29.5  19.6  24.5  18.2  12.14  342.4  227.3    0.0    0.0    0    0   27    0    0   35  0.000  0.000  0.000  0.042  0.000  0.000
----------------------------------------------------------------------------------------------------------------------------------------------------------------

--------------------------------------------------------------------------------------------------------------

                  Dry bean YIELD :     1569 kg/ha    [Dry weight] 

**************************************************************************************************************

*DSSAT Cropping System Model Ver. 4.6.1.000 -release      JUL 11, 2017; 16:24:48
                                                                                
*RUN   5        : SIM                       CRGRO046 4\000004    1              
 MODEL          : CRGRO046 - Dry bean                                           
 EXPERIMENT     : 4\000004 BN PALMIRA_ANALISIS SENSIBILIDAD                     
 DATA PATH      : D:\B\0\00000                                                  
 TREATMENT  1   : SIM                       CRGRO046                            
                                                                                
                                                                                
 CROP           : Dry bean         CULTIVAR : Jatu Rong        ECOTYPE :ANDIND  
 STARTING DATE  : APR  1 1984                                                   
 PLANTING DATE  : APR 15 1984        PLANTS/m2 : 26.6     ROW SPACING :  60.cm  
 WEATHER        : PALM8034                                                      
 SOIL           : CCPA000030     TEXTURE : C     -   Silty Clay Loam            
 WATER BALANCE  : NOT SIMULATED ; NO H2O-STRESS                                 
 IRRIGATION     :                                                               
 NITROGEN BAL.  : NOT SIMULATED ; NO N-STRESS                                   
 N-FERTILIZER   :                                                               
 RESIDUE/MANURE :                                                               
 ENVIRONM. OPT. : DAYL=    0.00  SRAD=    0.00  TMAX=    0.00  TMIN=    0.00    
                  RAIN=    0.00  CO2 =    0.00  DEW =    0.00  WIND=    0.00    
 SIMULATION OPT : WATER   :N  NITROGEN:N  N-FIX:N  PHOSPH :N  PESTS  :N         
                  PHOTO   :L  ET      :R  INFIL:S  HYDROL :R  SOM    :G         
                  CO2 344ppm  NSWIT   :1  EVAP :S  SOIL   :2  STEMP  :D         
 MANAGEMENT OPT : PLANTING:A  IRRIG   :A  FERT :D  RESIDUE:N  HARVEST:M         
                  WEATHER :M  TILLAGE :N                                        
                                                                                
*SUMMARY OF SOIL AND GENETIC INPUT PARAMETERS                                   
                                                                                
 Dry bean   CULTIVAR :000004-Jatu Rong          ECOTYPE :ANDIND                 
 CSDVAR :12.17  PPSEN  : 0.05  EMG-FLW:21.00  FLW-FSD: 9.00  FSD-PHM : 11.00    
 WTPSD  :0.600  SDPDVR : 3.50  SDFDUR :15.00  PODDUR :10.00  XFRUIT  :  1.00    
 THRESH : 78.0  SDPRO  :0.235  SDLIP   : 0.030                                  


*SIMULATED CROP AND SOIL STATUS AT MAIN DEVELOPMENT STAGES

 RUN NO.     5     SIM                     

        CROP GROWTH     BIOMASS         LEAF   CROP N     STRESS      STRESS                                           
   DATE  AGE STAGE        kg/ha    LAI   NUM  kg/ha  %   H2O  Nitr Phos1 Phos2  RSTG                                   
 ------  --- ----------   -----  -----  ----  ---  ---  ----  ----  ----  ----  ----                                   
  1 APR    0 Start Sim        0   0.00   0.0    0  0.0  0.00  0.00  0.00  0.00     0
 15 APR    0 Sowing           0   0.00   0.0    0  0.0  0.00  0.00  0.00  0.00     0
 20 APR    5 Emergence       44   0.08   0.2    1  3.4  0.00  0.00  0.00  0.00     0
 20 APR    5 End Juven.      44   0.08   0.2    1  3.4  0.00  0.00  0.00  0.00     0
 23 APR    8 Unifoliate      49   0.09   1.1    2  3.3  0.00  0.64  0.00  0.00     0
 25 APR   10 Flower Ind      55   0.10   1.7    2  3.2  0.00  0.45  0.00  0.00     0
 13 MAY   28 First Flwr     702   1.85   6.9   22  3.1  0.00  0.01  0.00  0.00     1
 15 MAY   30 First Pod      869   2.15   7.4   27  3.1  0.00  0.00  0.00  0.00     3
 23 MAY   38 First Seed    1786   2.78   9.8   54  3.0  0.00  0.00  0.00  0.00     5
 25 MAY   40 End Msnode    2033   2.78  10.3   61  3.0  0.00  0.00  0.00  0.00     5
 30 MAY   45 End Pod       2674   2.58  10.3   79  2.9  0.00  0.00  0.00  0.00     5
  2 JUN   48 End Leaf      3034   2.38  10.3   88  2.9  0.00  0.00  0.00  0.00     5
  4 JUN   50 Phys. Mat     3272   2.23  10.3   93  2.8  0.00  0.00  0.00  0.00     7
 13 JUN   59 Harv. Mat     2985   0.15  10.3   83  2.8  0.00  0.00  0.00  0.00     8
 13 JUN   59 Harvest       2985   0.15  10.3   83  2.8  0.00  0.00  0.00  0.00     8


*MAIN GROWTH AND DEVELOPMENT VARIABLES

@     VARIABLE                                         SIMULATED     MEASURED
      --------                                         ---------     --------
      Anthesis day (dap)                                      28          -99
      First pod day (dap)                                     30          -99
      First seed day (dap)                                    38          -99
      Physiological maturity day (dap)                        50          -99
      Yield at harvest maturity (kg [dm]/ha)                1555          -99
      Pod/Ear/Panicle weight at maturity (kg [dm]/ha)       2356          -99
      Number at maturity (no/m2)                             507          -99
      Unit wt at maturity (g [dm]/unit)                   0.3063          -99
      Number at maturity (no/unit)                          3.50          -99
      Tops weight at maturity (kg [dm]/ha)                  2985          -99
      By-product produced (stalk) at maturity (kg[dm]/ha    1430          -99
      Leaf area index, maximum                              2.79          -99
      Harvest index at maturity                            0.521          -99
      Threshing % at maturity                              65.99          -99
      Grain N at maturity (kg/ha)                             58          -99
      Tops N at maturity (kg/ha)                              83          -99
      Stem N at maturity (kg/ha)                               7          -99
      Grain N at maturity (%)                               3.73          -99
      Tops weight at anthesis (kg [dm]/ha)                   702          -99
      Tops N at anthesis (kg/ha)                              22          -99
      Leaf number per stem at maturity                     10.30          -99
      Grain oil at maturity (%)                             2.91          -99
      Canopy height (m)                                     0.84          -99
      Harvest maturity day (dap)                              59          -99
      Emergence day (dap)                                      5          -99


*ENVIRONMENTAL AND STRESS FACTORS

 |-----Development Phase------|--------------------------------------Environment--------------------------------------|-----------------Stress-----------------|
                              |---------------Average--------------|-----Cumulative-----|--------Count of days--------|          (0=Min, 1=Max Stress)         |
                         Time  Temp  Temp  Temp Solar Photop                Evapo    Pot TMIN TMIN TMAX TMAX TMAX RAIN|----Water----|---Nitrogen--|-Phosphorus-|
                         Span   Max   Min  Mean   Rad  [day]    CO2   Rain  Trans     ET   <    <    >    >    >    >   Photo         Photo         Photo
                         days    øC    øC    øC MJ/m2     hr    ppm     mm     mm     mm  0øC  2øC 30øC 32øC 34øC  0mm  synth Growth  synth Growth  synth Growth
----------------------------------------------------------------------------------------------------------------------------------------------------------------
 Emergence -First Flower   23  28.4  18.8  23.6  18.1  12.13  344.1   67.0    0.0    0.0    0    0    2    0    0   12  0.000  0.000  0.000  0.130  0.000  0.000
 First Flower-First Seed   10  28.5  18.8  23.6  17.7  12.17  344.3   26.2    0.0    0.0    0    0    1    0    0    6  0.000  0.000  0.000  0.000  0.000  0.000
 First Seed - Phys. Mat.   12  28.1  18.8  23.4  17.1  12.19  344.3   30.9    0.0    0.0    0    0    3    0    0    6  0.000  0.000  0.000  0.000  0.000  0.000
 Emergence  - Phys. Mat.   45  28.3  18.8  23.6  17.7  12.15  344.2  124.1    0.0    0.0    0    0    6    0    0   24  0.000  0.000  0.000  0.067  0.000  0.000


 Planting to Harvest       73  28.5  18.8  23.7  18.0  12.14  344.2  207.0    0.0    0.0    0    0   12    0    0   39  0.000  0.000  0.000  0.041  0.000  0.000
----------------------------------------------------------------------------------------------------------------------------------------------------------------

--------------------------------------------------------------------------------------------------------------

                  Dry bean YIELD :     1555 kg/ha    [Dry weight] 

**************************************************************************************************************

*DSSAT Cropping System Model Ver. 4.6.1.000 -release      JUL 11, 2017; 16:24:48
                                                                                
*RUN   6        : SIM                       CRGRO046 4\000004    1              
 MODEL          : CRGRO046 - Dry bean                                           
 EXPERIMENT     : 4\000004 BN PALMIRA_ANALISIS SENSIBILIDAD                     
 DATA PATH      : D:\B\0\00000                                                  
 TREATMENT  1   : SIM                       CRGRO046                            
                                                                                
                                                                                
 CROP           : Dry bean         CULTIVAR : Jatu Rong        ECOTYPE :ANDIND  
 STARTING DATE  : APR  2 1985                                                   
 PLANTING DATE  : APR 16 1985        PLANTS/m2 : 26.6     ROW SPACING :  60.cm  
 WEATHER        : PALM8034                                                      
 SOIL           : CCPA000030     TEXTURE : C     -   Silty Clay Loam            
 WATER BALANCE  : NOT SIMULATED ; NO H2O-STRESS                                 
 IRRIGATION     :                                                               
 NITROGEN BAL.  : NOT SIMULATED ; NO N-STRESS                                   
 N-FERTILIZER   :                                                               
 RESIDUE/MANURE :                                                               
 ENVIRONM. OPT. : DAYL=    0.00  SRAD=    0.00  TMAX=    0.00  TMIN=    0.00    
                  RAIN=    0.00  CO2 =    0.00  DEW =    0.00  WIND=    0.00    
 SIMULATION OPT : WATER   :N  NITROGEN:N  N-FIX:N  PHOSPH :N  PESTS  :N         
                  PHOTO   :L  ET      :R  INFIL:S  HYDROL :R  SOM    :G         
                  CO2 346ppm  NSWIT   :1  EVAP :S  SOIL   :2  STEMP  :D         
 MANAGEMENT OPT : PLANTING:A  IRRIG   :A  FERT :D  RESIDUE:N  HARVEST:M         
                  WEATHER :M  TILLAGE :N                                        
                                                                                
*SUMMARY OF SOIL AND GENETIC INPUT PARAMETERS                                   
                                                                                
 Dry bean   CULTIVAR :000004-Jatu Rong          ECOTYPE :ANDIND                 
 CSDVAR :12.17  PPSEN  : 0.05  EMG-FLW:21.00  FLW-FSD: 9.00  FSD-PHM : 11.00    
 WTPSD  :0.600  SDPDVR : 3.50  SDFDUR :15.00  PODDUR :10.00  XFRUIT  :  1.00    
 THRESH : 78.0  SDPRO  :0.235  SDLIP   : 0.030                                  


*SIMULATED CROP AND SOIL STATUS AT MAIN DEVELOPMENT STAGES

 RUN NO.     6     SIM                     

        CROP GROWTH     BIOMASS         LEAF   CROP N     STRESS      STRESS                                           
   DATE  AGE STAGE        kg/ha    LAI   NUM  kg/ha  %   H2O  Nitr Phos1 Phos2  RSTG                                   
 ------  --- ----------   -----  -----  ----  ---  ---  ----  ----  ----  ----  ----                                   
  2 APR    0 Start Sim        0   0.00   0.0    0  0.0  0.00  0.00  0.00  0.00     0
 16 APR    0 Sowing           0   0.00   0.0    0  0.0  0.00  0.00  0.00  0.00     0
 21 APR    5 Emergence       44   0.08   0.2    1  3.4  0.00  0.00  0.00  0.00     0
 21 APR    5 End Juven.      44   0.08   0.2    1  3.4  0.00  0.00  0.00  0.00     0
 24 APR    8 Unifoliate      48   0.09   1.1    2  3.3  0.00  0.66  0.00  0.00     0
 26 APR   10 Flower Ind      55   0.10   1.6    2  3.2  0.00  0.43  0.00  0.00     0
 14 MAY   28 First Flwr     715   1.85   6.8   22  3.1  0.00  0.01  0.00  0.00     1
 17 MAY   31 First Pod      968   2.29   7.7   30  3.1  0.00  0.00  0.00  0.00     3
 24 MAY   38 First Seed    1822   2.83   9.8   55  3.0  0.00  0.00  0.00  0.00     5
 26 MAY   40 End Msnode    2104   2.85  10.4   63  3.0  0.00  0.00  0.00  0.00     5
 30 MAY   44 End Pod       2617   2.69  10.4   77  3.0  0.00  0.00  0.00  0.00     5
  2 JUN   47 End Leaf      2971   2.49  10.4   86  2.9  0.00  0.00  0.00  0.00     5
  5 JUN   50 Phys. Mat     3344   2.26  10.4   95  2.9  0.00  0.00  0.00  0.00     7
 14 JUN   59 Harv. Mat     3071   0.16  10.4   87  2.8  0.00  0.00  0.00  0.00     8
 14 JUN   59 Harvest       3071   0.16  10.4   87  2.8  0.00  0.00  0.00  0.00     8


*MAIN GROWTH AND DEVELOPMENT VARIABLES

@     VARIABLE                                         SIMULATED     MEASURED
      --------                                         ---------     --------
      Anthesis day (dap)                                      28          -99
      First pod day (dap)                                     31          -99
      First seed day (dap)                                    38          -99
      Physiological maturity day (dap)                        50          -99
      Yield at harvest maturity (kg [dm]/ha)                1660          -99
      Pod/Ear/Panicle weight at maturity (kg [dm]/ha)       2423          -99
      Number at maturity (no/m2)                             483          -99
      Unit wt at maturity (g [dm]/unit)                   0.3436          -99
      Number at maturity (no/unit)                          3.50          -99
      Tops weight at maturity (kg [dm]/ha)                  3071          -99
      By-product produced (stalk) at maturity (kg[dm]/ha    1410          -99
      Leaf area index, maximum                              2.85          -99
      Harvest index at maturity                            0.541          -99
      Threshing % at maturity                              68.51          -99
      Grain N at maturity (kg/ha)                             62          -99
      Tops N at maturity (kg/ha)                              87          -99
      Stem N at maturity (kg/ha)                               7          -99
      Grain N at maturity (%)                               3.74          -99
      Tops weight at anthesis (kg [dm]/ha)                   715          -99
      Tops N at anthesis (kg/ha)                              22          -99
      Leaf number per stem at maturity                     10.37          -99
      Grain oil at maturity (%)                             2.90          -99
      Canopy height (m)                                     0.85          -99
      Harvest maturity day (dap)                              59          -99
      Emergence day (dap)                                      5          -99


*ENVIRONMENTAL AND STRESS FACTORS

 |-----Development Phase------|--------------------------------------Environment--------------------------------------|-----------------Stress-----------------|
                              |---------------Average--------------|-----Cumulative-----|--------Count of days--------|          (0=Min, 1=Max Stress)         |
                         Time  Temp  Temp  Temp Solar Photop                Evapo    Pot TMIN TMIN TMAX TMAX TMAX RAIN|----Water----|---Nitrogen--|-Phosphorus-|
                         Span   Max   Min  Mean   Rad  [day]    CO2   Rain  Trans     ET   <    <    >    >    >    >   Photo         Photo         Photo
                         days    øC    øC    øC MJ/m2     hr    ppm     mm     mm     mm  0øC  2øC 30øC 32øC 34øC  0mm  synth Growth  synth Growth  synth Growth
----------------------------------------------------------------------------------------------------------------------------------------------------------------
 Emergence -First Flower   23  29.1  18.5  23.8  19.0  12.13  345.6   63.0    0.0    0.0    0    0    5    0    0   11  0.000  0.000  0.000  0.131  0.000  0.000
 First Flower-First Seed   10  29.0  19.0  24.0  18.0  12.17  345.7   24.5    0.0    0.0    0    0    3    0    0    7  0.000  0.000  0.000  0.000  0.000  0.000
 First Seed - Phys. Mat.   12  29.2  19.5  24.3  17.5  12.19  345.7   22.8    0.0    0.0    0    0    3    0    0    4  0.000  0.000  0.000  0.000  0.000  0.000
 Emergence  - Phys. Mat.   45  29.1  18.9  24.0  18.4  12.15  345.7  110.3    0.0    0.0    0    0   11    0    0   22  0.000  0.000  0.000  0.067  0.000  0.000


 Planting to Harvest       73  29.2  18.9  24.0  18.6  12.14  345.7  157.3    0.0    0.0    0    0   21    0    0   30  0.000  0.000  0.000  0.041  0.000  0.000
----------------------------------------------------------------------------------------------------------------------------------------------------------------

--------------------------------------------------------------------------------------------------------------

                  Dry bean YIELD :     1660 kg/ha    [Dry weight] 

**************************************************************************************************************

*DSSAT Cropping System Model Ver. 4.6.1.000 -release      JUL 11, 2017; 16:24:48
                                                                                
*RUN   7        : SIM                       CRGRO046 4\000004    1              
 MODEL          : CRGRO046 - Dry bean                                           
 EXPERIMENT     : 4\000004 BN PALMIRA_ANALISIS SENSIBILIDAD                     
 DATA PATH      : D:\B\0\00000                                                  
 TREATMENT  1   : SIM                       CRGRO046                            
                                                                                
                                                                                
 CROP           : Dry bean         CULTIVAR : Jatu Rong        ECOTYPE :ANDIND  
 STARTING DATE  : APR  2 1986                                                   
 PLANTING DATE  : APR 16 1986        PLANTS/m2 : 26.6     ROW SPACING :  60.cm  
 WEATHER        : PALM8034                                                      
 SOIL           : CCPA000030     TEXTURE : C     -   Silty Clay Loam            
 WATER BALANCE  : NOT SIMULATED ; NO H2O-STRESS                                 
 IRRIGATION     :                                                               
 NITROGEN BAL.  : NOT SIMULATED ; NO N-STRESS                                   
 N-FERTILIZER   :                                                               
 RESIDUE/MANURE :                                                               
 ENVIRONM. OPT. : DAYL=    0.00  SRAD=    0.00  TMAX=    0.00  TMIN=    0.00    
                  RAIN=    0.00  CO2 =    0.00  DEW =    0.00  WIND=    0.00    
 SIMULATION OPT : WATER   :N  NITROGEN:N  N-FIX:N  PHOSPH :N  PESTS  :N         
                  PHOTO   :L  ET      :R  INFIL:S  HYDROL :R  SOM    :G         
                  CO2 347ppm  NSWIT   :1  EVAP :S  SOIL   :2  STEMP  :D         
 MANAGEMENT OPT : PLANTING:A  IRRIG   :A  FERT :D  RESIDUE:N  HARVEST:M         
                  WEATHER :M  TILLAGE :N                                        
                                                                                
*SUMMARY OF SOIL AND GENETIC INPUT PARAMETERS                                   
                                                                                
 Dry bean   CULTIVAR :000004-Jatu Rong          ECOTYPE :ANDIND                 
 CSDVAR :12.17  PPSEN  : 0.05  EMG-FLW:21.00  FLW-FSD: 9.00  FSD-PHM : 11.00    
 WTPSD  :0.600  SDPDVR : 3.50  SDFDUR :15.00  PODDUR :10.00  XFRUIT  :  1.00    
 THRESH : 78.0  SDPRO  :0.235  SDLIP   : 0.030                                  


*SIMULATED CROP AND SOIL STATUS AT MAIN DEVELOPMENT STAGES

 RUN NO.     7     SIM                     

        CROP GROWTH     BIOMASS         LEAF   CROP N     STRESS      STRESS                                           
   DATE  AGE STAGE        kg/ha    LAI   NUM  kg/ha  %   H2O  Nitr Phos1 Phos2  RSTG                                   
 ------  --- ----------   -----  -----  ----  ---  ---  ----  ----  ----  ----  ----                                   
  2 APR    0 Start Sim        0   0.00   0.0    0  0.0  0.00  0.00  0.00  0.00     0
 16 APR    0 Sowing           0   0.00   0.0    0  0.0  0.00  0.00  0.00  0.00     0
 21 APR    5 Emergence       44   0.08   0.2    1  3.4  0.00  0.00  0.00  0.00     0
 21 APR    5 End Juven.      44   0.08   0.2    1  3.4  0.00  0.00  0.00  0.00     0
 24 APR    8 Unifoliate      48   0.09   1.1    2  3.3  0.00  0.66  0.00  0.00     0
 26 APR   10 Flower Ind      55   0.10   1.7    2  3.2  0.00  0.44  0.00  0.00     0
 13 MAY   27 First Flwr     671   1.74   6.8   21  3.1  0.00  0.01  0.00  0.00     1
 16 MAY   30 First Pod      927   2.19   7.7   29  3.2  0.00  0.00  0.00  0.00     3
 23 MAY   37 First Seed    1787   2.75   9.8   54  3.0  0.00  0.00  0.00  0.00     5
 25 MAY   39 End Msnode    2069   2.78  10.4   62  3.0  0.00  0.00  0.00  0.00     5
 30 MAY   44 End Pod       2728   2.59  10.4   80  2.9  0.00  0.00  0.00  0.00     5
  2 JUN   47 End Leaf      3081   2.38  10.4   89  2.9  0.00  0.00  0.00  0.00     5
  4 JUN   49 Phys. Mat     3324   2.24  10.4   94  2.8  0.00  0.00  0.00  0.00     7
 13 JUN   58 Harv. Mat     3010   0.15  10.4   83  2.8  0.00  0.00  0.00  0.00     8
 13 JUN   58 Harvest       3010   0.15  10.4   83  2.8  0.00  0.00  0.00  0.00     8


*MAIN GROWTH AND DEVELOPMENT VARIABLES

@     VARIABLE                                         SIMULATED     MEASURED
      --------                                         ---------     --------
      Anthesis day (dap)                                      27          -99
      First pod day (dap)                                     30          -99
      First seed day (dap)                                    37          -99
      Physiological maturity day (dap)                        49          -99
      Yield at harvest maturity (kg [dm]/ha)                1554          -99
      Pod/Ear/Panicle weight at maturity (kg [dm]/ha)       2330          -99
      Number at maturity (no/m2)                             500          -99
      Unit wt at maturity (g [dm]/unit)                   0.3107          -99
      Number at maturity (no/unit)                          3.50          -99
      Tops weight at maturity (kg [dm]/ha)                  3010          -99
      By-product produced (stalk) at maturity (kg[dm]/ha    1460          -99
      Leaf area index, maximum                              2.78          -99
      Harvest index at maturity                            0.516          -99
      Threshing % at maturity                              66.70          -99
      Grain N at maturity (kg/ha)                             58          -99
      Tops N at maturity (kg/ha)                              83          -99
      Stem N at maturity (kg/ha)                               8          -99
      Grain N at maturity (%)                               3.72          -99
      Tops weight at anthesis (kg [dm]/ha)                   671          -99
      Tops N at anthesis (kg/ha)                              21          -99
      Leaf number per stem at maturity                     10.41          -99
      Grain oil at maturity (%)                             2.93          -99
      Canopy height (m)                                     0.87          -99
      Harvest maturity day (dap)                              58          -99
      Emergence day (dap)                                      5          -99


*ENVIRONMENTAL AND STRESS FACTORS

 |-----Development Phase------|--------------------------------------Environment--------------------------------------|-----------------Stress-----------------|
                              |---------------Average--------------|-----Cumulative-----|--------Count of days--------|          (0=Min, 1=Max Stress)         |
                         Time  Temp  Temp  Temp Solar Photop                Evapo    Pot TMIN TMIN TMAX TMAX TMAX RAIN|----Water----|---Nitrogen--|-Phosphorus-|
                         Span   Max   Min  Mean   Rad  [day]    CO2   Rain  Trans     ET   <    <    >    >    >    >   Photo         Photo         Photo
                         days    øC    øC    øC MJ/m2     hr    ppm     mm     mm     mm  0øC  2øC 30øC 32øC 34øC  0mm  synth Growth  synth Growth  synth Growth
----------------------------------------------------------------------------------------------------------------------------------------------------------------
 Emergence -First Flower   22  30.4  19.4  24.9  19.4  12.13  346.8   58.8    0.0    0.0    0    0   13    4    0   13  0.000  0.000  0.000  0.140  0.000  0.000
 First Flower-First Seed   10  31.4  19.3  25.3  19.9  12.17  346.9   40.5    0.0    0.0    0    0   10    1    0    6  0.000  0.000  0.000  0.000  0.000  0.000
 First Seed - Phys. Mat.   12  29.6  18.9  24.3  18.4  12.19  346.9   63.9    0.0    0.0    0    0    7    0    0    5  0.000  0.000  0.000  0.000  0.000  0.000
 Emergence  - Phys. Mat.   44  30.4  19.2  24.8  19.2  12.15  346.9  163.2    0.0    0.0    0    0   30    5    0   24  0.000  0.000  0.000  0.070  0.000  0.000


 Planting to Harvest       72  29.7  19.2  24.4  18.7  12.14  346.8  310.1    0.0    0.0    0    0   35    5    0   40  0.000  0.000  0.000  0.043  0.000  0.000
----------------------------------------------------------------------------------------------------------------------------------------------------------------

--------------------------------------------------------------------------------------------------------------

                  Dry bean YIELD :     1554 kg/ha    [Dry weight] 

**************************************************************************************************************

*DSSAT Cropping System Model Ver. 4.6.1.000 -release      JUL 11, 2017; 16:24:48
                                                                                
*RUN   8        : SIM                       CRGRO046 4\000004    1              
 MODEL          : CRGRO046 - Dry bean                                           
 EXPERIMENT     : 4\000004 BN PALMIRA_ANALISIS SENSIBILIDAD                     
 DATA PATH      : D:\B\0\00000                                                  
 TREATMENT  1   : SIM                       CRGRO046                            
                                                                                
                                                                                
 CROP           : Dry bean         CULTIVAR : Jatu Rong        ECOTYPE :ANDIND  
 STARTING DATE  : APR  2 1987                                                   
 PLANTING DATE  : APR 16 1987        PLANTS/m2 : 26.6     ROW SPACING :  60.cm  
 WEATHER        : PALM8034                                                      
 SOIL           : CCPA000030     TEXTURE : C     -   Silty Clay Loam            
 WATER BALANCE  : NOT SIMULATED ; NO H2O-STRESS                                 
 IRRIGATION     :                                                               
 NITROGEN BAL.  : NOT SIMULATED ; NO N-STRESS                                   
 N-FERTILIZER   :                                                               
 RESIDUE/MANURE :                                                               
 ENVIRONM. OPT. : DAYL=    0.00  SRAD=    0.00  TMAX=    0.00  TMIN=    0.00    
                  RAIN=    0.00  CO2 =    0.00  DEW =    0.00  WIND=    0.00    
 SIMULATION OPT : WATER   :N  NITROGEN:N  N-FIX:N  PHOSPH :N  PESTS  :N         
                  PHOTO   :L  ET      :R  INFIL:S  HYDROL :R  SOM    :G         
                  CO2 348ppm  NSWIT   :1  EVAP :S  SOIL   :2  STEMP  :D         
 MANAGEMENT OPT : PLANTING:A  IRRIG   :A  FERT :D  RESIDUE:N  HARVEST:M         
                  WEATHER :M  TILLAGE :N                                        
                                                                                
*SUMMARY OF SOIL AND GENETIC INPUT PARAMETERS                                   
                                                                                
 Dry bean   CULTIVAR :000004-Jatu Rong          ECOTYPE :ANDIND                 
 CSDVAR :12.17  PPSEN  : 0.05  EMG-FLW:21.00  FLW-FSD: 9.00  FSD-PHM : 11.00    
 WTPSD  :0.600  SDPDVR : 3.50  SDFDUR :15.00  PODDUR :10.00  XFRUIT  :  1.00    
 THRESH : 78.0  SDPRO  :0.235  SDLIP   : 0.030                                  


*SIMULATED CROP AND SOIL STATUS AT MAIN DEVELOPMENT STAGES

 RUN NO.     8     SIM                     

        CROP GROWTH     BIOMASS         LEAF   CROP N     STRESS      STRESS                                           
   DATE  AGE STAGE        kg/ha    LAI   NUM  kg/ha  %   H2O  Nitr Phos1 Phos2  RSTG                                   
 ------  --- ----------   -----  -----  ----  ---  ---  ----  ----  ----  ----  ----                                   
  2 APR    0 Start Sim        0   0.00   0.0    0  0.0  0.00  0.00  0.00  0.00     0
 16 APR    0 Sowing           0   0.00   0.0    0  0.0  0.00  0.00  0.00  0.00     0
 21 APR    5 Emergence       44   0.08   0.2    1  3.4  0.00  0.00  0.00  0.00     0
 21 APR    5 End Juven.      44   0.08   0.2    1  3.4  0.00  0.00  0.00  0.00     0
 24 APR    8 Unifoliate      49   0.09   1.1    2  3.3  0.00  0.65  0.00  0.00     0
 26 APR   10 Flower Ind      56   0.10   1.7    2  3.2  0.00  0.43  0.00  0.00     0
 13 MAY   27 First Flwr     702   1.80   6.8   22  3.1  0.00  0.01  0.00  0.00     1
 16 MAY   30 First Pod      964   2.25   7.7   31  3.2  0.00  0.00  0.00  0.00     3
 23 MAY   37 First Seed    1839   2.86   9.8   56  3.0  0.00  0.00  0.00  0.00     5
 25 MAY   39 End Msnode    2126   2.89  10.4   64  3.0  0.00  0.00  0.00  0.00     5
 30 MAY   44 End Pod       2802   2.69  10.4   83  3.0  0.00  0.00  0.00  0.00     5
  2 JUN   47 End Leaf      3168   2.47  10.4   92  2.9  0.00  0.00  0.00  0.00     5
  4 JUN   49 Phys. Mat     3398   2.31  10.4   97  2.9  0.00  0.00  0.00  0.00     7
 13 JUN   58 Harv. Mat     3096   0.16  10.4   87  2.8  0.00  0.00  0.00  0.00     8
 13 JUN   58 Harvest       3096   0.16  10.4   87  2.8  0.00  0.00  0.00  0.00     8


*MAIN GROWTH AND DEVELOPMENT VARIABLES

@     VARIABLE                                         SIMULATED     MEASURED
      --------                                         ---------     --------
      Anthesis day (dap)                                      27          -99
      First pod day (dap)                                     30          -99
      First seed day (dap)                                    37          -99
      Physiological maturity day (dap)                        49          -99
      Yield at harvest maturity (kg [dm]/ha)                1671          -99
      Pod/Ear/Panicle weight at maturity (kg [dm]/ha)       2408          -99
      Number at maturity (no/m2)                             498          -99
      Unit wt at maturity (g [dm]/unit)                   0.3356          -99
      Number at maturity (no/unit)                          3.50          -99
      Tops weight at maturity (kg [dm]/ha)                  3096          -99
      By-product produced (stalk) at maturity (kg[dm]/ha    1420          -99
      Leaf area index, maximum                              2.89          -99
      Harvest index at maturity                            0.540          -99
      Threshing % at maturity                              69.39          -99
      Grain N at maturity (kg/ha)                             63          -99
      Tops N at maturity (kg/ha)                              87          -99
      Stem N at maturity (kg/ha)                               8          -99
      Grain N at maturity (%)                               3.79          -99
      Tops weight at anthesis (kg [dm]/ha)                   702          -99
      Tops N at anthesis (kg/ha)                              22          -99
      Leaf number per stem at maturity                     10.40          -99
      Grain oil at maturity (%)                             2.89          -99
      Canopy height (m)                                     0.86          -99
      Harvest maturity day (dap)                              58          -99
      Emergence day (dap)                                      5          -99


*ENVIRONMENTAL AND STRESS FACTORS

 |-----Development Phase------|--------------------------------------Environment--------------------------------------|-----------------Stress-----------------|
                              |---------------Average--------------|-----Cumulative-----|--------Count of days--------|          (0=Min, 1=Max Stress)         |
                         Time  Temp  Temp  Temp Solar Photop                Evapo    Pot TMIN TMIN TMAX TMAX TMAX RAIN|----Water----|---Nitrogen--|-Phosphorus-|
                         Span   Max   Min  Mean   Rad  [day]    CO2   Rain  Trans     ET   <    <    >    >    >    >   Photo         Photo         Photo
                         days    øC    øC    øC MJ/m2     hr    ppm     mm     mm     mm  0øC  2øC 30øC 32øC 34øC  0mm  synth Growth  synth Growth  synth Growth
----------------------------------------------------------------------------------------------------------------------------------------------------------------
 Emergence -First Flower   22  31.1  18.9  25.0  20.4  12.13  348.5  128.5    0.0    0.0    0    0   17    5    1   14  0.000  0.000  0.000  0.134  0.000  0.000
 First Flower-First Seed   10  31.4  19.3  25.4  19.8  12.17  348.6   67.2    0.0    0.0    0    0    9    4    0    6  0.000  0.000  0.000  0.000  0.000  0.000
 First Seed - Phys. Mat.   12  30.9  19.6  25.3  18.9  12.19  348.6   36.2    0.0    0.0    0    0    8    4    0    3  0.000  0.000  0.000  0.000  0.000  0.000
 Emergence  - Phys. Mat.   44  31.1  19.2  25.2  19.9  12.15  348.6  231.9    0.0    0.0    0    0   34   13    1   23  0.000  0.000  0.000  0.067  0.000  0.000


 Planting to Harvest       72  31.1  19.4  25.2  19.9  12.14  348.5  238.7    0.0    0.0    0    0   55   20    1   28  0.000  0.000  0.000  0.041  0.000  0.000
----------------------------------------------------------------------------------------------------------------------------------------------------------------

--------------------------------------------------------------------------------------------------------------

                  Dry bean YIELD :     1671 kg/ha    [Dry weight] 

**************************************************************************************************************

*DSSAT Cropping System Model Ver. 4.6.1.000 -release      JUL 11, 2017; 16:24:48
                                                                                
*RUN   9        : SIM                       CRGRO046 4\000004    1              
 MODEL          : CRGRO046 - Dry bean                                           
 EXPERIMENT     : 4\000004 BN PALMIRA_ANALISIS SENSIBILIDAD                     
 DATA PATH      : D:\B\0\00000                                                  
 TREATMENT  1   : SIM                       CRGRO046                            
                                                                                
                                                                                
 CROP           : Dry bean         CULTIVAR : Jatu Rong        ECOTYPE :ANDIND  
 STARTING DATE  : APR  1 1988                                                   
 PLANTING DATE  : APR 15 1988        PLANTS/m2 : 26.6     ROW SPACING :  60.cm  
 WEATHER        : PALM8034                                                      
 SOIL           : CCPA000030     TEXTURE : C     -   Silty Clay Loam            
 WATER BALANCE  : NOT SIMULATED ; NO H2O-STRESS                                 
 IRRIGATION     :                                                               
 NITROGEN BAL.  : NOT SIMULATED ; NO N-STRESS                                   
 N-FERTILIZER   :                                                               
 RESIDUE/MANURE :                                                               
 ENVIRONM. OPT. : DAYL=    0.00  SRAD=    0.00  TMAX=    0.00  TMIN=    0.00    
                  RAIN=    0.00  CO2 =    0.00  DEW =    0.00  WIND=    0.00    
 SIMULATION OPT : WATER   :N  NITROGEN:N  N-FIX:N  PHOSPH :N  PESTS  :N         
                  PHOTO   :L  ET      :R  INFIL:S  HYDROL :R  SOM    :G         
                  CO2 351ppm  NSWIT   :1  EVAP :S  SOIL   :2  STEMP  :D         
 MANAGEMENT OPT : PLANTING:A  IRRIG   :A  FERT :D  RESIDUE:N  HARVEST:M         
                  WEATHER :M  TILLAGE :N                                        
                                                                                
*SUMMARY OF SOIL AND GENETIC INPUT PARAMETERS                                   
                                                                                
 Dry bean   CULTIVAR :000004-Jatu Rong          ECOTYPE :ANDIND                 
 CSDVAR :12.17  PPSEN  : 0.05  EMG-FLW:21.00  FLW-FSD: 9.00  FSD-PHM : 11.00    
 WTPSD  :0.600  SDPDVR : 3.50  SDFDUR :15.00  PODDUR :10.00  XFRUIT  :  1.00    
 THRESH : 78.0  SDPRO  :0.235  SDLIP   : 0.030                                  


*SIMULATED CROP AND SOIL STATUS AT MAIN DEVELOPMENT STAGES

 RUN NO.     9     SIM                     

        CROP GROWTH     BIOMASS         LEAF   CROP N     STRESS      STRESS                                           
   DATE  AGE STAGE        kg/ha    LAI   NUM  kg/ha  %   H2O  Nitr Phos1 Phos2  RSTG                                   
 ------  --- ----------   -----  -----  ----  ---  ---  ----  ----  ----  ----  ----                                   
  1 APR    0 Start Sim        0   0.00   0.0    0  0.0  0.00  0.00  0.00  0.00     0
 15 APR    0 Sowing           0   0.00   0.0    0  0.0  0.00  0.00  0.00  0.00     0
 20 APR    5 Emergence       44   0.08   0.2    1  3.4  0.00  0.00  0.00  0.00     0
 20 APR    5 End Juven.      44   0.08   0.2    1  3.4  0.00  0.00  0.00  0.00     0
 23 APR    8 Unifoliate      48   0.09   1.0    2  3.3  0.00  0.65  0.00  0.00     0
 25 APR   10 Flower Ind      56   0.10   1.6    2  3.2  0.00  0.41  0.00  0.00     0
 12 MAY   27 First Flwr     635   1.70   6.7   20  3.1  0.00  0.02  0.00  0.00     1
 15 MAY   30 First Pod      873   2.16   7.6   27  3.1  0.00  0.00  0.00  0.00     3
 22 MAY   37 First Seed    1683   2.69   9.6   51  3.1  0.00  0.00  0.00  0.00     5
 24 MAY   39 End Msnode    1960   2.72  10.2   59  3.0  0.00  0.00  0.00  0.00     5
 29 MAY   44 End Pod       2566   2.52  10.2   76  2.9  0.00  0.00  0.00  0.00     5
  1 JUN   47 End Leaf      2930   2.32  10.2   85  2.9  0.00  0.00  0.00  0.00     5
  4 JUN   50 Phys. Mat     3290   2.11  10.2   93  2.8  0.00  0.00  0.00  0.00     7
 13 JUN   59 Harv. Mat     3062   0.14  10.2   87  2.8  0.00  0.00  0.00  0.00     8
 13 JUN   59 Harvest       3062   0.14  10.2   87  2.8  0.00  0.00  0.00  0.00     8


*MAIN GROWTH AND DEVELOPMENT VARIABLES

@     VARIABLE                                         SIMULATED     MEASURED
      --------                                         ---------     --------
      Anthesis day (dap)                                      27          -99
      First pod day (dap)                                     30          -99
      First seed day (dap)                                    37          -99
      Physiological maturity day (dap)                        50          -99
      Yield at harvest maturity (kg [dm]/ha)                1628          -99
      Pod/Ear/Panicle weight at maturity (kg [dm]/ha)       2439          -99
      Number at maturity (no/m2)                             511          -99
      Unit wt at maturity (g [dm]/unit)                   0.3185          -99
      Number at maturity (no/unit)                          3.50          -99
      Tops weight at maturity (kg [dm]/ha)                  3062          -99
      By-product produced (stalk) at maturity (kg[dm]/ha    1430          -99
      Leaf area index, maximum                              2.72          -99
      Harvest index at maturity                            0.532          -99
      Threshing % at maturity                              66.76          -99
      Grain N at maturity (kg/ha)                             63          -99
      Tops N at maturity (kg/ha)                              87          -99
      Stem N at maturity (kg/ha)                               7          -99
      Grain N at maturity (%)                               3.84          -99
      Tops weight at anthesis (kg [dm]/ha)                   635          -99
      Tops N at anthesis (kg/ha)                              20          -99
      Leaf number per stem at maturity                     10.21          -99
      Grain oil at maturity (%)                             2.79          -99
      Canopy height (m)                                     0.84          -99
      Harvest maturity day (dap)                              59          -99
      Emergence day (dap)                                      5          -99


*ENVIRONMENTAL AND STRESS FACTORS

 |-----Development Phase------|--------------------------------------Environment--------------------------------------|-----------------Stress-----------------|
                              |---------------Average--------------|-----Cumulative-----|--------Count of days--------|          (0=Min, 1=Max Stress)         |
                         Time  Temp  Temp  Temp Solar Photop                Evapo    Pot TMIN TMIN TMAX TMAX TMAX RAIN|----Water----|---Nitrogen--|-Phosphorus-|
                         Span   Max   Min  Mean   Rad  [day]    CO2   Rain  Trans     ET   <    <    >    >    >    >   Photo         Photo         Photo
                         days    øC    øC    øC MJ/m2     hr    ppm     mm     mm     mm  0øC  2øC 30øC 32øC 34øC  0mm  synth Growth  synth Growth  synth Growth
----------------------------------------------------------------------------------------------------------------------------------------------------------------
 Emergence -First Flower   22  29.3  19.4  24.4  18.4  12.13  351.0   68.8    0.0    0.0    0    0    6    0    0    8  0.000  0.000  0.000  0.139  0.000  0.000
 First Flower-First Seed   10  29.0  19.1  24.1  18.0  12.17  351.2   16.5    0.0    0.0    0    0    2    0    0    4  0.000  0.000  0.000  0.000  0.000  0.000
 First Seed - Phys. Mat.   13  29.9  19.0  24.5  18.5  12.19  351.2  117.3    0.0    0.0    0    0    6    3    1    8  0.000  0.000  0.000  0.000  0.000  0.000
 Emergence  - Phys. Mat.   45  29.4  19.2  24.3  18.3  12.15  351.1  202.6    0.0    0.0    0    0   14    3    1   20  0.000  0.000  0.000  0.068  0.000  0.000


 Planting to Harvest       73  29.4  19.3  24.4  18.4  12.14  351.1  343.9    0.0    0.0    0    0   28    6    1   33  0.000  0.000  0.000  0.042  0.000  0.000
----------------------------------------------------------------------------------------------------------------------------------------------------------------

--------------------------------------------------------------------------------------------------------------

                  Dry bean YIELD :     1628 kg/ha    [Dry weight] 

**************************************************************************************************************

*DSSAT Cropping System Model Ver. 4.6.1.000 -release      JUL 11, 2017; 16:24:48
                                                                                
*RUN  10        : SIM                       CRGRO046 4\000004    1              
 MODEL          : CRGRO046 - Dry bean                                           
 EXPERIMENT     : 4\000004 BN PALMIRA_ANALISIS SENSIBILIDAD                     
 DATA PATH      : D:\B\0\00000                                                  
 TREATMENT  1   : SIM                       CRGRO046                            
[...]
      Emergence day (dap)                                      5          -99


*ENVIRONMENTAL AND STRESS FACTORS

 |-----Development Phase------|--------------------------------------Environment--------------------------------------|-----------------Stress-----------------|
                              |---------------Average--------------|-----Cumulative-----|--------Count of days--------|          (0=Min, 1=Max Stress)         |
                         Time  Temp  Temp  Temp Solar Photop                Evapo    Pot TMIN TMIN TMAX TMAX TMAX RAIN|----Water----|---Nitrogen--|-Phosphorus-|
                         Span   Max   Min  Mean   Rad  [day]    CO2   Rain  Trans     ET   <    <    >    >    >    >   Photo         Photo         Photo
                         days    øC    øC    øC MJ/m2     hr    ppm     mm     mm     mm  0øC  2øC 30øC 32øC 34øC  0mm  synth Growth  synth Growth  synth Growth
----------------------------------------------------------------------------------------------------------------------------------------------------------------
 Emergence -First Flower   22  30.4  19.1  24.8  19.5  12.13  386.9   51.1    0.0    0.0    0    0   16    2    0   14  0.000  0.000  0.000  0.128  0.000  0.000
 First Flower-First Seed   10  30.8  18.5  24.7  20.0  12.17  387.1    1.6    0.0    0.0    0    0    8    0    0    1  0.000  0.000  0.000  0.000  0.000  0.000
 First Seed - Phys. Mat.   12  31.1  19.2  25.1  19.4  12.19  387.1    2.8    0.0    0.0    0    0    9    3    0    2  0.000  0.000  0.000  0.000  0.000  0.000
 Emergence  - Phys. Mat.   44  30.6  19.0  24.8  19.6  12.15  387.0   55.5    0.0    0.0    0    0   33    5    0   17  0.000  0.000  0.000  0.064  0.000  0.000


 Planting to Harvest       72  30.2  19.2  24.7  19.2  12.14  387.0  105.7    0.0    0.0    0    0   44    5    0   32  0.000  0.000  0.000  0.039  0.000  0.000
----------------------------------------------------------------------------------------------------------------------------------------------------------------

--------------------------------------------------------------------------------------------------------------

                  Dry bean YIELD :     1639 kg/ha    [Dry weight] 

**************************************************************************************************************

*DSSAT Cropping System Model Ver. 4.6.1.000 -release      JUL 11, 2017; 16:24:48
                                                                                
*RUN  31        : SIM                       CRGRO046 4\000004    1              
 MODEL          : CRGRO046 - Dry bean                                           
 EXPERIMENT     : 4\000004 BN PALMIRA_ANALISIS SENSIBILIDAD                     
 DATA PATH      : D:\B\0\00000                                                  
 TREATMENT  1   : SIM                       CRGRO046                            
                                                                                
                                                                                
 CROP           : Dry bean         CULTIVAR : Jatu Rong        ECOTYPE :ANDIND  
 STARTING DATE  : APR  2 2010                                                   
 PLANTING DATE  : APR 16 2010        PLANTS/m2 : 26.6     ROW SPACING :  60.cm  
 WEATHER        : PALM8034                                                      
 SOIL           : CCPA000030     TEXTURE : C     -   Silty Clay Loam            
 WATER BALANCE  : NOT SIMULATED ; NO H2O-STRESS                                 
 IRRIGATION     :                                                               
 NITROGEN BAL.  : NOT SIMULATED ; NO N-STRESS                                   
 N-FERTILIZER   :                                                               
 RESIDUE/MANURE :                                                               
 ENVIRONM. OPT. : DAYL=    0.00  SRAD=    0.00  TMAX=    0.00  TMIN=    0.00    
                  RAIN=    0.00  CO2 =    0.00  DEW =    0.00  WIND=    0.00    
 SIMULATION OPT : WATER   :N  NITROGEN:N  N-FIX:N  PHOSPH :N  PESTS  :N         
                  PHOTO   :L  ET      :R  INFIL:S  HYDROL :R  SOM    :G         
                  CO2 389ppm  NSWIT   :1  EVAP :S  SOIL   :2  STEMP  :D         
 MANAGEMENT OPT : PLANTING:A  IRRIG   :A  FERT :D  RESIDUE:N  HARVEST:M         
                  WEATHER :M  TILLAGE :N                                        
                                                                                
*SUMMARY OF SOIL AND GENETIC INPUT PARAMETERS                                   
                                                                                
 Dry bean   CULTIVAR :000004-Jatu Rong          ECOTYPE :ANDIND                 
 CSDVAR :12.17  PPSEN  : 0.05  EMG-FLW:21.00  FLW-FSD: 9.00  FSD-PHM : 11.00    
 WTPSD  :0.600  SDPDVR : 3.50  SDFDUR :15.00  PODDUR :10.00  XFRUIT  :  1.00    
 THRESH : 78.0  SDPRO  :0.235  SDLIP   : 0.030                                  


*SIMULATED CROP AND SOIL STATUS AT MAIN DEVELOPMENT STAGES

 RUN NO.    31     SIM                     

        CROP GROWTH     BIOMASS         LEAF   CROP N     STRESS      STRESS                                           
   DATE  AGE STAGE        kg/ha    LAI   NUM  kg/ha  %   H2O  Nitr Phos1 Phos2  RSTG                                   
 ------  --- ----------   -----  -----  ----  ---  ---  ----  ----  ----  ----  ----                                   
  2 APR    0 Start Sim        0   0.00   0.0    0  0.0  0.00  0.00  0.00  0.00     0
 16 APR    0 Sowing           0   0.00   0.0    0  0.0  0.00  0.00  0.00  0.00     0
 21 APR    5 Emergence       44   0.08   0.2    1  3.4  0.00  0.00  0.00  0.00     0
 21 APR    5 End Juven.      44   0.08   0.2    1  3.4  0.00  0.00  0.00  0.00     0
 24 APR    8 Unifoliate      49   0.09   1.1    2  3.3  0.00  0.66  0.00  0.00     0
 26 APR   10 Flower Ind      55   0.10   1.7    2  3.1  0.00  0.45  0.00  0.00     0
 13 MAY   27 First Flwr     707   1.89   6.9   22  3.1  0.00  0.01  0.00  0.00     1
 15 MAY   29 First Pod      887   2.22   7.5   28  3.1  0.00  0.00  0.00  0.00     3
 22 MAY   36 First Seed    1715   2.91   9.7   52  3.0  0.00  0.00  0.00  0.00     5
 24 MAY   38 End Msnode    1994   2.95  10.3   60  3.0  0.00  0.00  0.00  0.00     5
 29 MAY   43 End Pod       2656   2.75  10.3   78  2.9  0.00  0.00  0.00  0.00     5
  1 JUN   46 End Leaf      3040   2.53  10.3   88  2.9  0.00  0.00  0.00  0.00     5
  4 JUN   49 Phys. Mat     3385   2.30  10.3   96  2.8  0.00  0.00  0.00  0.00     7
 13 JUN   58 Harv. Mat     3153   0.16  10.3   89  2.8  0.00  0.00  0.00  0.00     8
 13 JUN   58 Harvest       3153   0.16  10.3   89  2.8  0.00  0.00  0.00  0.00     8


*MAIN GROWTH AND DEVELOPMENT VARIABLES

@     VARIABLE                                         SIMULATED     MEASURED
      --------                                         ---------     --------
      Anthesis day (dap)                                      27          -99
      First pod day (dap)                                     29          -99
      First seed day (dap)                                    36          -99
      Physiological maturity day (dap)                        49          -99
      Yield at harvest maturity (kg [dm]/ha)                1719          -99
      Pod/Ear/Panicle weight at maturity (kg [dm]/ha)       2503          -99
      Number at maturity (no/m2)                             504          -99
      Unit wt at maturity (g [dm]/unit)                   0.3409          -99
      Number at maturity (no/unit)                          3.50          -99
      Tops weight at maturity (kg [dm]/ha)                  3153          -99
      By-product produced (stalk) at maturity (kg[dm]/ha    1430          -99
      Leaf area index, maximum                              2.95          -99
      Harvest index at maturity                            0.545          -99
      Threshing % at maturity                              68.68          -99
      Grain N at maturity (kg/ha)                             65          -99
      Tops N at maturity (kg/ha)                              89          -99
      Stem N at maturity (kg/ha)                               7          -99
      Grain N at maturity (%)                               3.75          -99
      Tops weight at anthesis (kg [dm]/ha)                   707          -99
      Tops N at anthesis (kg/ha)                              22          -99
      Leaf number per stem at maturity                     10.25          -99
      Grain oil at maturity (%)                             2.92          -99
      Canopy height (m)                                     0.85          -99
      Harvest maturity day (dap)                              58          -99
      Emergence day (dap)                                      5          -99


*ENVIRONMENTAL AND STRESS FACTORS

 |-----Development Phase------|--------------------------------------Environment--------------------------------------|-----------------Stress-----------------|
                              |---------------Average--------------|-----Cumulative-----|--------Count of days--------|          (0=Min, 1=Max Stress)         |
                         Time  Temp  Temp  Temp Solar Photop                Evapo    Pot TMIN TMIN TMAX TMAX TMAX RAIN|----Water----|---Nitrogen--|-Phosphorus-|
                         Span   Max   Min  Mean   Rad  [day]    CO2   Rain  Trans     ET   <    <    >    >    >    >   Photo         Photo         Photo
                         days    øC    øC    øC MJ/m2     hr    ppm     mm     mm     mm  0øC  2øC 30øC 32øC 34øC  0mm  synth Growth  synth Growth  synth Growth
----------------------------------------------------------------------------------------------------------------------------------------------------------------
 Emergence -First Flower   22  29.6  20.2  24.9  17.9  12.13  389.4  122.8    0.0    0.0    0    0   11    1    0   10  0.000  0.000  0.000  0.136  0.000  0.000
 First Flower-First Seed    9  30.2  21.0  25.6  17.3  12.17  389.6   38.8    0.0    0.0    0    0    7    0    0    5  0.000  0.000  0.000  0.000  0.000  0.000
 First Seed - Phys. Mat.   13  28.2  19.6  23.9  16.4  12.19  389.6   53.3    0.0    0.0    0    0    4    0    0    7  0.000  0.000  0.000  0.000  0.000  0.000
 Emergence  - Phys. Mat.   44  29.3  20.2  24.7  17.3  12.15  389.5  214.9    0.0    0.0    0    0   22    1    0   22  0.000  0.000  0.000  0.068  0.000  0.000


 Planting to Harvest       72  29.4  19.9  24.7  17.8  12.14  389.4  363.2    0.0    0.0    0    0   37    3    0   38  0.000  0.000  0.000  0.041  0.000  0.000
----------------------------------------------------------------------------------------------------------------------------------------------------------------

--------------------------------------------------------------------------------------------------------------

                  Dry bean YIELD :     1719 kg/ha    [Dry weight] 

**************************************************************************************************************

*DSSAT Cropping System Model Ver. 4.6.1.000 -release      JUL 11, 2017; 16:24:48
                                                                                
*RUN  32        : SIM                       CRGRO046 4\000004    1              
 MODEL          : CRGRO046 - Dry bean                                           
 EXPERIMENT     : 4\000004 BN PALMIRA_ANALISIS SENSIBILIDAD                     
 DATA PATH      : D:\B\0\00000                                                  
 TREATMENT  1   : SIM                       CRGRO046                            
                                                                                
                                                                                
 CROP           : Dry bean         CULTIVAR : Jatu Rong        ECOTYPE :ANDIND  
 STARTING DATE  : APR  2 2011                                                   
 PLANTING DATE  : APR 16 2011        PLANTS/m2 : 26.6     ROW SPACING :  60.cm  
 WEATHER        : PALM8034                                                      
 SOIL           : CCPA000030     TEXTURE : C     -   Silty Clay Loam            
 WATER BALANCE  : NOT SIMULATED ; NO H2O-STRESS                                 
 IRRIGATION     :                                                               
 NITROGEN BAL.  : NOT SIMULATED ; NO N-STRESS                                   
 N-FERTILIZER   :                                                               
 RESIDUE/MANURE :                                                               
 ENVIRONM. OPT. : DAYL=    0.00  SRAD=    0.00  TMAX=    0.00  TMIN=    0.00    
                  RAIN=    0.00  CO2 =    0.00  DEW =    0.00  WIND=    0.00    
 SIMULATION OPT : WATER   :N  NITROGEN:N  N-FIX:N  PHOSPH :N  PESTS  :N         
                  PHOTO   :L  ET      :R  INFIL:S  HYDROL :R  SOM    :G         
                  CO2 391ppm  NSWIT   :1  EVAP :S  SOIL   :2  STEMP  :D         
 MANAGEMENT OPT : PLANTING:A  IRRIG   :A  FERT :D  RESIDUE:N  HARVEST:M         
                  WEATHER :M  TILLAGE :N                                        
                                                                                
*SUMMARY OF SOIL AND GENETIC INPUT PARAMETERS                                   
                                                                                
 Dry bean   CULTIVAR :000004-Jatu Rong          ECOTYPE :ANDIND                 
 CSDVAR :12.17  PPSEN  : 0.05  EMG-FLW:21.00  FLW-FSD: 9.00  FSD-PHM : 11.00    
 WTPSD  :0.600  SDPDVR : 3.50  SDFDUR :15.00  PODDUR :10.00  XFRUIT  :  1.00    
 THRESH : 78.0  SDPRO  :0.235  SDLIP   : 0.030                                  


*SIMULATED CROP AND SOIL STATUS AT MAIN DEVELOPMENT STAGES

 RUN NO.    32     SIM                     

        CROP GROWTH     BIOMASS         LEAF   CROP N     STRESS      STRESS                                           
   DATE  AGE STAGE        kg/ha    LAI   NUM  kg/ha  %   H2O  Nitr Phos1 Phos2  RSTG                                   
 ------  --- ----------   -----  -----  ----  ---  ---  ----  ----  ----  ----  ----                                   
  2 APR    0 Start Sim        0   0.00   0.0    0  0.0  0.00  0.00  0.00  0.00     0
 16 APR    0 Sowing           0   0.00   0.0    0  0.0  0.00  0.00  0.00  0.00     0
 21 APR    5 Emergence       44   0.08   0.2    1  3.4  0.00  0.00  0.00  0.00     0
 21 APR    5 End Juven.      44   0.08   0.2    1  3.4  0.00  0.00  0.00  0.00     0
 24 APR    8 Unifoliate      49   0.09   1.1    2  3.3  0.00  0.64  0.00  0.00     0
 26 APR   10 Flower Ind      57   0.10   1.7    2  3.1  0.00  0.39  0.00  0.00     0
 13 MAY   27 First Flwr     712   1.89   6.8   22  3.1  0.00  0.01  0.00  0.00     1
 16 MAY   30 First Pod      981   2.37   7.7   31  3.2  0.00  0.00  0.00  0.00     3
 23 MAY   37 First Seed    1910   2.95   9.7   58  3.0  0.00  0.00  0.00  0.00     5
 25 MAY   39 End Msnode    2213   2.97  10.3   67  3.0  0.00  0.00  0.00  0.00     5
 30 MAY   44 End Pod       2923   2.77  10.3   86  2.9  0.00  0.00  0.00  0.00     5
  2 JUN   47 End Leaf      3308   2.54  10.3   96  2.9  0.00  0.00  0.00  0.00     5
  4 JUN   49 Phys. Mat     3545   2.38  10.3  101  2.8  0.00  0.00  0.00  0.00     7
 13 JUN   58 Harv. Mat     3281   0.16  10.3   92  2.8  0.00  0.00  0.00  0.00     8
 13 JUN   58 Harvest       3281   0.16  10.3   92  2.8  0.00  0.00  0.00  0.00     8


*MAIN GROWTH AND DEVELOPMENT VARIABLES

@     VARIABLE                                         SIMULATED     MEASURED
      --------                                         ---------     --------
      Anthesis day (dap)                                      27          -99
      First pod day (dap)                                     30          -99
      First seed day (dap)                                    37          -99
      Physiological maturity day (dap)                        49          -99
      Yield at harvest maturity (kg [dm]/ha)                1751          -99
      Pod/Ear/Panicle weight at maturity (kg [dm]/ha)       2551          -99
      Number at maturity (no/m2)                             529          -99
      Unit wt at maturity (g [dm]/unit)                   0.3311          -99
      Number at maturity (no/unit)                          3.50          -99
      Tops weight at maturity (kg [dm]/ha)                  3281          -99
      By-product produced (stalk) at maturity (kg[dm]/ha    1530          -99
      Leaf area index, maximum                              2.97          -99
      Harvest index at maturity                            0.534          -99
      Threshing % at maturity                              68.64          -99
      Grain N at maturity (kg/ha)                             67          -99
      Tops N at maturity (kg/ha)                              92          -99
      Stem N at maturity (kg/ha)                               8          -99
      Grain N at maturity (%)                               3.80          -99
      Tops weight at anthesis (kg [dm]/ha)                   712          -99
      Tops N at anthesis (kg/ha)                              22          -99
      Leaf number per stem at maturity                     10.35          -99
      Grain oil at maturity (%)                             2.86          -99
      Canopy height (m)                                     0.85          -99
      Harvest maturity day (dap)                              58          -99
      Emergence day (dap)                                      5          -99


*ENVIRONMENTAL AND STRESS FACTORS

 |-----Development Phase------|--------------------------------------Environment--------------------------------------|-----------------Stress-----------------|
                              |---------------Average--------------|-----Cumulative-----|--------Count of days--------|          (0=Min, 1=Max Stress)         |
                         Time  Temp  Temp  Temp Solar Photop                Evapo    Pot TMIN TMIN TMAX TMAX TMAX RAIN|----Water----|---Nitrogen--|-Phosphorus-|
                         Span   Max   Min  Mean   Rad  [day]    CO2   Rain  Trans     ET   <    <    >    >    >    >   Photo         Photo         Photo
                         days    øC    øC    øC MJ/m2     hr    ppm     mm     mm     mm  0øC  2øC 30øC 32øC 34øC  0mm  synth Growth  synth Growth  synth Growth
----------------------------------------------------------------------------------------------------------------------------------------------------------------
 Emergence -First Flower   22  30.2  19.6  24.9  19.0  12.13  391.2   83.7    0.0    0.0    0    0   12    1    0   13  0.000  0.000  0.000  0.130  0.000  0.000
 First Flower-First Seed   10  29.5  18.7  24.1  18.7  12.17  391.3    2.9    0.0    0.0    0    0    4    0    0    5  0.000  0.000  0.000  0.000  0.000  0.000
 First Seed - Phys. Mat.   12  29.4  19.6  24.5  17.6  12.19  391.4   21.7    0.0    0.0    0    0    6    0    0    4  0.000  0.000  0.000  0.000  0.000  0.000
 Emergence  - Phys. Mat.   44  29.8  19.4  24.6  18.5  12.15  391.3  108.3    0.0    0.0    0    0   22    1    0   22  0.000  0.000  0.000  0.065  0.000  0.000


 Planting to Harvest       72  29.7  19.3  24.5  18.6  12.14  391.3  270.6    0.0    0.0    0    0   35    4    0   41  0.000  0.000  0.000  0.040  0.000  0.000
----------------------------------------------------------------------------------------------------------------------------------------------------------------

--------------------------------------------------------------------------------------------------------------

                  Dry bean YIELD :     1751 kg/ha    [Dry weight] 

**************************************************************************************************************
