*GROWTH ASPECTS OUTPUT FILE

*DSSAT Cropping System Model Ver. 4.6.1.000 -release      JUL 11, 2017; 16:24:48
                                                                                
*RUN   1        : SIM                       CRGRO046 4\000004    1              
 MODEL          : CRGRO046 - Dry bean                                           
 EXPERIMENT     : 4\000004 BN PALMIRA_ANALISIS SENSIBILIDAD                     
 DATA PATH      : D:\B\0\00000                                                  
 TREATMENT  1   : SIM                       CRGRO046                            
  
!                                                                                                                                                                                                                                                    Root Dens. (cm/cm3) by soil depth (cm):
!                                                                                                                                                                                                                                                    0-5    5-15   15-25   25-35   35-50   50-65   65-80   80-99  99-122 122-209
@YEAR DOY   DAS   DAP   L#SD   GSTD   LAID   LWAD   SWAD   GWAD   RWAD   VWAD   CWAD   G#AD    GWGD   HIAD   PWAD   P#AD   WSPD   WSGD   NSTD  PST1A  PST2A   KSTD   EWSD    LN%D   SH%D   HIPD   PWDD   PWTD   SLAD   CHTD   CWID   NWAD   RDPD    RL1D    RL2D    RL3D    RL4D    RL5D    RL6D    RL7D    RL8D    RL9D   RL10D    SNW0C   SNW1C
 1980 106    15     0    0.0      0  0.000      0      0      0      0      0      0      0     0.0  0.000      0      0  0.000  0.000  0.000  0.000  0.000  0.000  0.000    0.00   0.00   0.00      0      0    0.0   0.00   0.00    0.0   0.00    0.00    0.00    0.00    0.00    0.00    0.00    0.00    0.00    0.00    0.00        0       0
 1980 107    16     1    0.0      0  0.000      0      0      0      0      0      0      0     0.0  0.000      0      0  0.000  0.000  0.000  0.000  0.000  0.000  0.000    0.00   0.00   0.00      0      0    0.0   0.00   0.00    0.0   0.00    0.00    0.00    0.00    0.00    0.00    0.00    0.00    0.00    0.00    0.00        0       0
 1980 108    17     2    0.0      0  0.000      0      0      0      0      0      0      0     0.0  0.000      0      0  0.000  0.000  0.000  0.000  0.000  0.000  0.000    0.00   0.00   0.00      0      0    0.0   0.00   0.00    0.0   0.00    0.00    0.00    0.00    0.00    0.00    0.00    0.00    0.00    0.00    0.00        0       0
 1980 109    18     3    0.0      0  0.000      0      0      0      0      0      0      0     0.0  0.000      0      0  0.000  0.000  0.000  0.000  0.000  0.000  0.000    0.00   0.00   0.00      0      0    0.0   0.00   0.00    0.0   0.00    0.00    0.00    0.00    0.00    0.00    0.00    0.00    0.00    0.00    0.00        0       0
 1980 110    19     4    0.0      0  0.000      0      0      0      0      0      0      0     0.0  0.000      0      0  0.000  0.000  0.000  0.000  0.000  0.000  0.000    0.00   0.00   0.00      0      0    0.0   0.00   0.00    0.0   0.00    0.00    0.00    0.00    0.00    0.00    0.00    0.00    0.00    0.00    0.00        0       0
 1980 111    20     5    0.2      0  0.079     31     13      0     43     44     44      0     0.0  0.000      0      0  0.000  0.000  0.000  0.000  0.000  0.000  0.000    3.84   0.00   0.00      0      0  256.8   0.04   0.03    0.0   0.27    0.15    0.15    0.15    0.00    0.00    0.00    0.00    0.00    0.00    0.00        0       1
 1980 112    21     6    0.5      0  0.082     31     14      0     50     45     45      0     0.0  0.000      0      0  0.000  0.000  0.646  0.000  0.000  0.000  0.000    3.78   0.00   0.00      0      0  261.8   0.05   0.03    0.0   0.29    0.18    0.18    0.17    0.01    0.00    0.00    0.00    0.00    0.00    0.00        0       2
 1980 113    22     7    0.8      0  0.085     32     15      0     59     47     47      0     0.0  0.000      0      0  0.000  0.000  0.737  0.000  0.000  0.000  0.000    3.72   0.00   0.00      0      0  265.6   0.07   0.04    0.0   0.32    0.21    0.21    0.20    0.02    0.00    0.00    0.00    0.00    0.00    0.00        0       3
 1980 114    23     8    1.1      0  0.088     33     16      0     67     49     49      0     0.0  0.000      0      0  0.000  0.000  0.546  0.000  0.000  0.000  0.000    3.71   0.00   0.00      0      0  271.5   0.08   0.05    0.0   0.34    0.24    0.24    0.21    0.03    0.00    0.00    0.00    0.00    0.00    0.00        0       4
 1980 115    24     9    1.4      0  0.092     33     18      0     74     51     51      0     0.0  0.000      0      0  0.000  0.000  0.519  0.000  0.000  0.000  0.000    3.68   0.00   0.00      0      0  278.2   0.09   0.05    0.0   0.36    0.26    0.26    0.23    0.05    0.00    0.00    0.00    0.00    0.00    0.00        1       6
 1980 116    25    10    1.7      0  0.098     34     22      0     79     56     56      0     0.0  0.000      0      0  0.000  0.000  0.303  0.000  0.000  0.000  0.000    3.66   0.00   0.00      0      0  285.5   0.10   0.06    0.0   0.38    0.28    0.28    0.24    0.06    0.00    0.00    0.00    0.00    0.00    0.00        1       7
 1980 117    26    11    2.0      0  0.114     37     25      0     82     62     62      0     0.0  0.000      0      0  0.000  0.000  0.204  0.000  0.000  0.000  0.000    3.63   0.00   0.00      0      0  308.2   0.11   0.07    0.0   0.40    0.28    0.28    0.25    0.06    0.00    0.00    0.00    0.00    0.00    0.00        2       9
 1980 118    27    12    2.3      0  0.141     44     28      0     82     72     72      0     0.0  0.000      0      0  0.000  0.000  0.000  0.000  0.000  0.000  0.000    3.61   0.00   0.00      0      0  323.5   0.11   0.08    0.0   0.42    0.29    0.29    0.25    0.06    0.00    0.00    0.00    0.00    0.00    0.00        2      11
 1980 119    28    13    2.6      0  0.168     49     34      0     84     83     83      0     0.0  0.000      0      0  0.000  0.000  0.000  0.000  0.000  0.000  0.000    3.56   0.00   0.00      0      0  339.2   0.12   0.08    0.0   0.44    0.29    0.29    0.25    0.07    0.01    0.00    0.00    0.00    0.00    0.00        3      12
 1980 120    29    14    2.9      0  0.206     57     39      0     85     96     96      0     0.0  0.000      0      0  0.000  0.000  0.000  0.000  0.000  0.000  0.000    3.53   0.00   0.00      0      0  358.4   0.13   0.09    0.0   0.46    0.29    0.29    0.25    0.07    0.01    0.00    0.00    0.00    0.00    0.00        3      14
 1980 121    30    15    3.2      0  0.258     70     42      0     85    113    113      0     0.0  0.000      0      0  0.000  0.000  0.000  0.000  0.000  0.000  0.000    3.53   0.00   0.00      0      0  367.5   0.14   0.10    0.0   0.49    0.29    0.29    0.25    0.07    0.01    0.00    0.00    0.00    0.00    0.00        4      16
 1980 122    31    16    3.5      0  0.313     81     49      0     86    131    131      0     0.0  0.000      0      0  0.000  0.000  0.000  0.000  0.000  0.000  0.000    3.52   0.00   0.00      0      0  385.3   0.15   0.12    0.0   0.51    0.29    0.29    0.25    0.07    0.01    0.00    0.00    0.00    0.00    0.00        5      18
 1980 123    32    17    3.8      0  0.365     93     59      0     88    152    152      0     0.0  0.000      0      0  0.000  0.000  0.000  0.000  0.000  0.000  0.000    3.52   0.00   0.00      0      0  390.6   0.16   0.14    0.0   0.53    0.30    0.30    0.25    0.08    0.02    0.00    0.00    0.00    0.00    0.00        5      19
 1980 124    33    18    4.1      0  0.417    105     72      0     90    177    177      0     0.0  0.000      0      0  0.000  0.000  0.000  0.000  0.000  0.000  0.000    3.51   0.00   0.00      0      0  395.5   0.17   0.16    0.0   0.54    0.30    0.30    0.26    0.08    0.02    0.00    0.00    0.00    0.00    0.00        6      21
 1980 125    34    19    4.4      0  0.493    122     83      0     92    206    206      0     0.0  0.000      0      0  0.000  0.000  0.000  0.000  0.000  0.000  0.000    3.52   0.00   0.00      0      0  402.4   0.19   0.18    0.0   0.56    0.31    0.31    0.26    0.09    0.02    0.00    0.00    0.00    0.00    0.00        8      23
 1980 126    35    20    4.7      0  0.604    148     92      0     93    240    240      0     0.0  0.000      0      0  0.000  0.000  0.000  0.000  0.000  0.000  0.000    3.54   0.00   0.00      0      0  407.6   0.20   0.20    0.0   0.58    0.31    0.31    0.26    0.09    0.03    0.00    0.00    0.00    0.00    0.00        9      25
 1980 127    36    21    5.0      0  0.739    178    102      0     94    280    280      0     0.0  0.000      0      0  0.000  0.000  0.000  0.000  0.000  0.000  0.000    3.55   0.00   0.00      0      0  416.4   0.22   0.22    0.0   0.60    0.31    0.31    0.26    0.09    0.03    0.00    0.00    0.00    0.00    0.00       11      27
 1980 128    37    22    5.3      0  0.869    207    120      0     98    327    327      0     0.0  0.000      0      0  0.000  0.000  0.000  0.000  0.000  0.000  0.000    3.56   0.00   0.00      0      0  419.2   0.24   0.25    0.0   0.62    0.32    0.32    0.27    0.10    0.03    0.01    0.00    0.00    0.00    0.00       13      29
 1980 129    38    23    5.6      0  1.018    241    140      0    102    381    381      0     0.0  0.000      0      0  0.000  0.000  0.000  0.000  0.000  0.000  0.000    3.56   0.00   0.00      0      0  422.5   0.26   0.27    0.0   0.64    0.33    0.33    0.27    0.10    0.04    0.01    0.00    0.00    0.00    0.00       15      31
 1980 130    39    24    5.9      0  1.177    279    164      0    107    442    442      0     0.0  0.000      0      0  0.000  0.000  0.000  0.000  0.000  0.000  0.000    3.57   0.00   0.00      0      0  422.3   0.28   0.29    0.0   0.65    0.34    0.34    0.28    0.11    0.04    0.01    0.00    0.00    0.00    0.00       18      33
 1980 131    40    25    6.2      0  1.369    321    191      0    113    512    512      0     0.0  0.000      0      0  0.000  0.000  0.000  0.000  0.000  0.000  0.000    3.57   0.00   0.00      0      0  426.2   0.31   0.31    0.0   0.67    0.35    0.35    0.29    0.12    0.05    0.02    0.00    0.00    0.00    0.00       21      36
 1980 132    41    26    6.5      0  1.561    366    222      0    120    588    588      0     0.0  0.000      0      0  0.000  0.000  0.000  0.000  0.000  0.000  0.000    3.59   0.00   0.00      0      0  426.5   0.34   0.33    0.0   0.69    0.37    0.37    0.30    0.13    0.06    0.02    0.00    0.00    0.00    0.00       29      38
 1980 133    42    27    6.8      1  1.742    406    256      0    128    662    662      0     0.0  0.000      0      0  0.000  0.000  0.000  0.000  0.000  0.000  0.000    3.65   0.00   0.00      0      0  428.7   0.37   0.36    0.0   0.71    0.39    0.39    0.31    0.14    0.06    0.03    0.00    0.00    0.00    0.00       47      41
 1980 134    43    28    7.1      1  1.924    440    288      0    135    728    728      0     0.0  0.000      0      0  0.000  0.000  0.000  0.000  0.000  0.000  0.000    3.70   0.00   0.00      0      0  437.5   0.40   0.38    0.0   0.72    0.40    0.40    0.33    0.15    0.07    0.03    0.00    0.00    0.00    0.00       67      44
 1980 135    44    29    7.4      1  2.083    478    329      0    143    807    807      0     0.0  0.000      0      0  0.000  0.000  0.000  0.000  0.000  0.000  0.000    3.76   0.00   0.00      0      0  435.4   0.43   0.40    0.0   0.74    0.42    0.42    0.34    0.16    0.08    0.03    0.01    0.00    0.00    0.00       89      46
 1980 136    45    30    7.7      3  2.215    515    372      0    152    887    887      0     0.0  0.000      0      0  0.000  0.000  0.000  0.000  0.000  0.000  0.000    3.82   0.00   0.00      0      0  430.2   0.46   0.42    0.0   0.76    0.44    0.44    0.35    0.17    0.09    0.04    0.01    0.00    0.00    0.00      116      49
 1980 137    46    31    7.9      3  2.309    552    422      0    162    974    978      0     0.0  0.000      3      4  0.000  0.000  0.000  0.000  0.000  0.000  0.000    3.88   0.00   0.00      0      3  418.1   0.49   0.44    0.0   0.77    0.46    0.46    0.37    0.18    0.10    0.05    0.01    0.00    0.00    0.00      148      53
 1980 138    47    32    8.2      3  2.416    595    475      0    171   1070   1084      0     0.0  0.000     14     14  0.000  0.000  0.000  0.000  0.000  0.000  0.000    3.90   0.00   0.01      0     14  406.4   0.52   0.46    0.0   0.79    0.49    0.49    0.39    0.19    0.11    0.05    0.02    0.00    0.00    0.00      169      56
 1980 139    48    33    8.5      3  2.516    636    530      0    179   1166   1200      0     0.0  0.000     34     24  0.000  0.000  0.000  0.000  0.000  0.000  0.000    3.89   0.00   0.03      0     34  395.5   0.55   0.48    0.0   0.81    0.50    0.50    0.40    0.20    0.11    0.06    0.02    0.00    0.00    0.00      187      60
 1980 140    49    34    8.8      3  2.596    674    583      0    187   1258   1321      0     0.0  0.000     63     35  0.000  0.000  0.000  0.000  0.000  0.000  0.000    3.88   0.00   0.05      0     63  385.1   0.58   0.50    0.0   0.82    0.52    0.52    0.41    0.21    0.12    0.06    0.03    0.00    0.00    0.00      203      64
 1980 141    50    35    9.1      3  2.656    711    639      0    195   1350   1451      0     0.0  0.000    101     47  0.000  0.000  0.000  0.000  0.000  0.000  0.000    3.87   0.00   0.07      0    101  373.6   0.61   0.52    0.0   0.84    0.54    0.54    0.42    0.22    0.13    0.06    0.03    0.00    0.00    0.00      218      67
 1980 142    51    36    9.5      3  2.699    738    687      0    200   1425   1575      0     0.0  0.000    149     58  0.000  0.000  0.000  0.000  0.000  0.000  0.000    3.85   0.00   0.09      0    149  365.6   0.64   0.54    0.0   0.86    0.55    0.55    0.43    0.23    0.13    0.07    0.03    0.00    0.00    0.00      234      72
 1980 143    52    37    9.8      5  2.733    766    736      0    205   1501   1708      0     0.0  0.000    207     70  0.000  0.000  0.000  0.000  0.000  0.000  0.000    3.83   0.00   0.12      0    207  357.0   0.68   0.55    0.0   0.87    0.56    0.56    0.44    0.23    0.14    0.07    0.03    0.00    0.00    0.00      247      76
 1980 144    53    38   10.1      5  2.751    788    781      0    209   1569   1839     45     0.0  0.000    270     82  0.000  0.000  0.000  0.000  0.000  0.000  0.000    3.80   0.00   0.15      0    270  349.0   0.71   0.57    0.0   0.89    0.57    0.57    0.44    0.24    0.14    0.07    0.04    0.00    0.00    0.00      264      81
 1980 145    54    39   10.4      5  2.748    800    812     17    210   1612   1971     79    22.0  0.009    359     94  0.000  0.000  0.000  0.000  0.000  0.000  0.000    3.78   4.85   0.18      0    359  343.5   0.75   0.58    0.0   0.91    0.57    0.57    0.44    0.24    0.14    0.07    0.04    0.00    0.00    0.00      278      85
 1980 146    55    40   10.4      5  2.734    808    840     47    211   1648   2107    115    40.9  0.022    460    107  0.000  0.000  0.000  0.000  0.000  0.000  0.000    3.77  10.25   0.22      0    460  338.3   0.79   0.60    0.0   0.92    0.57    0.57    0.44    0.24    0.15    0.07    0.04    0.00    0.00    0.00      294      90
 1980 147    56    41   10.4      5  2.704    805    852     92    210   1657   2237    153    60.0  0.041    580    118  0.000  0.000  0.000  0.000  0.000  0.000  0.000    3.75  15.87   0.26      0    580  335.7   0.82   0.60    0.0   0.94    0.56    0.56    0.44    0.24    0.14    0.07    0.04    0.01    0.00    0.00      309      94
 1980 148    57    42   10.4      5  2.653    793    852    151    206   1644   2359    192    79.0  0.064    715    131  0.000  0.000  0.000  0.000  0.000  0.000  0.000    3.70  21.18   0.30      0    715  334.7   0.86   0.60    0.0   0.96    0.55    0.55    0.43    0.24    0.14    0.07    0.04    0.01    0.00    0.00      326      99
 1980 149    58    43   10.4      5  2.594    775    844    225    202   1618   2481    232    96.7  0.091    862    143  0.000  0.000  0.000  0.000  0.000  0.000  0.000    3.64  26.05   0.35      0    862  334.9   0.86   0.60    0.0   0.97    0.54    0.54    0.43    0.23    0.14    0.07    0.04    0.01    0.00    0.00      345     103
 1980 150    59    44   10.4      5  2.531    753    830    314    197   1583   2602    274   114.6  0.121   1019    155  0.000  0.000  0.000  0.000  0.000  0.000  0.000    3.58  30.78   0.39      0   1019  336.1   0.86   0.60    0.0   0.99    0.53    0.53    0.42    0.23    0.14    0.07    0.04    0.01    0.00    0.00      364     107
 1980 151    60    45   10.4      5  2.463    730    816    421    193   1546   2715    317   133.0  0.155   1168    167  0.000  0.000  0.000  0.000  0.000  0.000  0.000    3.51  36.07   0.43      0   1168  337.3   0.86   0.60    0.0   0.99    0.52    0.52    0.41    0.22    0.13    0.07    0.04    0.01    0.00    0.00      384     112
 1980 152    61    46   10.4      5  2.393    707    803    543    188   1509   2836    360   150.8  0.191   1327    176  0.000  0.000  0.000  0.000  0.000  0.000  0.000    3.43  40.91   0.47      0   1327  338.6   0.86   0.60    0.0   0.99    0.51    0.51    0.40    0.22    0.13    0.07    0.04    0.01    0.00    0.00      405     116
 1980 153    62    47   10.4      5  2.323    683    789    685    184   1472   2950    360   190.4  0.232   1478    183  0.000  0.000  0.000  0.000  0.000  0.000  0.000    3.35  46.35   0.50      0   1478  339.9   0.86   0.60    0.0   0.99    0.50    0.50    0.39    0.21    0.13    0.07    0.04    0.00    0.00    0.00      422     120
 1980 154    63    48   10.4      5  2.262    663    777    823    180   1440   3055    402   204.7  0.270   1615    187  0.000  0.000  0.000  0.000  0.000  0.000  0.000    3.27  50.99   0.53      0   1615  341.1   0.86   0.60    0.0   0.99    0.49    0.49    0.38    0.21    0.13    0.07    0.03    0.00    0.00    0.00      439     123
 1980 155    64    49   10.4      7  2.190    639    763    977    176   1402   3166    439   222.6  0.309   1764    187  0.000  0.000  0.000  0.000  0.000  0.000  0.000    3.17  55.40   0.56      0   1764  342.5   0.86   0.60    0.0   0.99    0.48    0.48    0.38    0.20    0.12    0.06    0.03    0.00    0.00    0.00      468     126
 1980 156    65    50   10.4      7  1.616    470    707   1144    172   1177   3081    458   249.7  0.371   1904    180  0.000  0.000  0.000  0.000  0.000  0.000  0.000    2.98  60.08   0.62      0   1904  343.9   0.86   0.60    0.0   0.99    0.47    0.47    0.37    0.20    0.12    0.06    0.03    0.00    0.00    0.00      694     130
 1980 157    66    51   10.4      7  1.195    346    666   1278    168   1012   3039    461   277.5  0.421   2027    168  0.000  0.000  0.000  0.000  0.000  0.000  0.000    2.80  63.06   0.67      0   2027  345.2   0.86   0.60    0.0   0.99    0.46    0.46    0.36    0.20    0.12    0.06    0.03    0.00    0.00    0.00      851     134
 1980 158    67    52   10.4      7  0.884    255    634   1382    164    889   3012    461   300.0  0.459   2123    156  0.000  0.000  0.000  0.000  0.000  0.000  0.000    2.63  65.08   0.70      0   2123  346.6   0.86   0.60    0.0   0.99    0.45    0.45    0.35    0.19    0.12    0.06    0.03    0.00    0.00    0.00      963     137
 1980 159    68    53   10.4      7  0.655    188    610   1462    161    798   2995    461   317.4  0.488   2197    146  0.000  0.000  0.000  0.000  0.000  0.000  0.000    2.48  66.54   0.73      0   2197  347.7   0.86   0.60    0.0   0.99    0.44    0.44    0.34    0.19    0.11    0.06    0.03    0.00    0.00    0.00     1046     141
 1980 160    69    54   10.4      7  0.486    139    591   1521    157    730   2980    461   330.3  0.510   2250    138  0.000  0.000  0.000  0.000  0.000  0.000  0.000    2.34  67.61   0.75      0   2250  348.8   0.86   0.60    0.0   0.99    0.43    0.43    0.34    0.18    0.11    0.06    0.03    0.00    0.00    0.00     1107     144
 1980 161    70    55   10.4      7  0.361    103    576   1564    153    679   2966    461   339.7  0.527   2287    134  0.000  0.000  0.000  0.000  0.000  0.000  0.000    2.21  68.40   0.77      0   2287  350.3   0.86   0.60    0.0   0.99    0.42    0.42    0.33    0.18    0.11    0.06    0.03    0.00    0.00    0.00     1153     148
 1980 162    71    56   10.4      7  0.268     76    564   1595    150    640   2953    461   346.3  0.540   2312    132  0.000  0.000  0.000  0.000  0.000  0.000  0.000    2.10  68.97   0.78      0   2312  351.6   0.86   0.60    0.0   0.99    0.41    0.41    0.32    0.18    0.11    0.05    0.03    0.00    0.00    0.00     1186     151
 1980 163    72    57   10.4      7  0.200     57    555   1615    147    611   2940    461   350.7  0.549   2329    132  0.000  0.000  0.000  0.000  0.000  0.000  0.000    2.02  69.37   0.79      0   2329  352.9   0.86   0.60    0.0   0.99    0.41    0.41    0.32    0.17    0.10    0.05    0.03    0.00    0.00    0.00     1211     154
 1980 164    73    58   10.4      8  0.150     42    548   1628    144    590   2928    461   353.4  0.556   2338    132  0.000  0.000  0.000  0.000  0.000  0.000  0.000    1.98  69.61   0.80      0   2338  354.1   0.86   0.60    0.0   0.99    0.40    0.40    0.31    0.17    0.10    0.05    0.03    0.00    0.00    0.00     1229     157

*DSSAT Cropping System Model Ver. 4.6.1.000 -release      JUL 11, 2017; 16:24:48
                                                                                
*RUN   2        : SIM                       CRGRO046 4\000004    1              
 MODEL          : CRGRO046 - Dry bean                                           
 EXPERIMENT     : 4\000004 BN PALMIRA_ANALISIS SENSIBILIDAD                     
 DATA PATH      : D:\B\0\00000                                                  
 TREATMENT  1   : SIM                       CRGRO046                            
  
!                                                                                                                                                                                                                                                    Root Dens. (cm/cm3) by soil depth (cm):
!                                                                                                                                                                                                                                                    0-5    5-15   15-25   25-35   35-50   50-65   65-80   80-99  99-122 122-209
@YEAR DOY   DAS   DAP   L#SD   GSTD   LAID   LWAD   SWAD   GWAD   RWAD   VWAD   CWAD   G#AD    GWGD   HIAD   PWAD   P#AD   WSPD   WSGD   NSTD  PST1A  PST2A   KSTD   EWSD    LN%D   SH%D   HIPD   PWDD   PWTD   SLAD   CHTD   CWID   NWAD   RDPD    RL1D    RL2D    RL3D    RL4D    RL5D    RL6D    RL7D    RL8D    RL9D   RL10D    SNW0C   SNW1C
 1981 106    15     0    0.0      0  0.000      0      0      0      0      0      0      0     0.0  0.000      0      0  0.000  0.000  0.000  0.000  0.000  0.000  0.000    0.00   0.00   0.00      0      0    0.0   0.00   0.00    0.0   0.00    0.00    0.00    0.00    0.00    0.00    0.00    0.00    0.00    0.00    0.00        0       0
 1981 107    16     1    0.0      0  0.000      0      0      0      0      0      0      0     0.0  0.000      0      0  0.000  0.000  0.000  0.000  0.000  0.000  0.000    0.00   0.00   0.00      0      0    0.0   0.00   0.00    0.0   0.00    0.00    0.00    0.00    0.00    0.00    0.00    0.00    0.00    0.00    0.00        0       0
 1981 108    17     2    0.0      0  0.000      0      0      0      0      0      0      0     0.0  0.000      0      0  0.000  0.000  0.000  0.000  0.000  0.000  0.000    0.00   0.00   0.00      0      0    0.0   0.00   0.00    0.0   0.00    0.00    0.00    0.00    0.00    0.00    0.00    0.00    0.00    0.00    0.00        0       0
 1981 109    18     3    0.0      0  0.000      0      0      0      0      0      0      0     0.0  0.000      0      0  0.000  0.000  0.000  0.000  0.000  0.000  0.000    0.00   0.00   0.00      0      0    0.0   0.00   0.00    0.0   0.00    0.00    0.00    0.00    0.00    0.00    0.00    0.00    0.00    0.00    0.00        0       0
 1981 110    19     4    0.0      0  0.000      0      0      0      0      0      0      0     0.0  0.000      0      0  0.000  0.000  0.000  0.000  0.000  0.000  0.000    0.00   0.00   0.00      0      0    0.0   0.00   0.00    0.0   0.00    0.00    0.00    0.00    0.00    0.00    0.00    0.00    0.00    0.00    0.00        0       0
 1981 111    20     5    0.2      0  0.079     31     13      0     43     44     44      0     0.0  0.000      0      0  0.000  0.000  0.000  0.000  0.000  0.000  0.000    3.84   0.00   0.00      0      0  256.6   0.04   0.03    0.0   0.27    0.15    0.15    0.15    0.00    0.00    0.00    0.00    0.00    0.00    0.00        0       1
 1981 112    21     6    0.5      0  0.082     31     14      0     51     45     45      0     0.0  0.000      0      0  0.000  0.000  0.653  0.000  0.000  0.000  0.000    3.78   0.00   0.00      0      0  261.6   0.05   0.03    0.0   0.29    0.18    0.18    0.18    0.01    0.00    0.00    0.00    0.00    0.00    0.00        0       2
 1981 113    22     7    0.8      0  0.084     32     15      0     59     46     46      0     0.0  0.000      0      0  0.000  0.000  0.742  0.000  0.000  0.000  0.000    3.73   0.00   0.00      0      0  265.1   0.06   0.04    0.0   0.31    0.21    0.21    0.20    0.02    0.00    0.00    0.00    0.00    0.00    0.00        0       3
 1981 114    23     8    1.1      0  0.087     32     16      0     67     48     48      0     0.0  0.000      0      0  0.000  0.000  0.576  0.000  0.000  0.000  0.000    3.71   0.00   0.00      0      0  270.8   0.07   0.04    0.0   0.33    0.24    0.24    0.22    0.03    0.00    0.00    0.00    0.00    0.00    0.00        0       4
 1981 115    24     9    1.3      0  0.091     33     18      0     74     51     51      0     0.0  0.000      0      0  0.000  0.000  0.498  0.000  0.000  0.000  0.000    3.68   0.00   0.00      0      0  276.8   0.08   0.05    0.0   0.36    0.26    0.26    0.23    0.04    0.00    0.00    0.00    0.00    0.00    0.00        1       6
 1981 116    25    10    1.7      0  0.096     34     21      0     80     54     54      0     0.0  0.000      0      0  0.000  0.000  0.437  0.000  0.000  0.000  0.000    3.66   0.00   0.00      0      0  285.0   0.09   0.06    0.0   0.38    0.28    0.28    0.25    0.06    0.00    0.00    0.00    0.00    0.00    0.00        1       7
 1981 117    26    11    1.9      0  0.107     35     23      0     84     59     59      0     0.0  0.000      0      0  0.000  0.000  0.290  0.000  0.000  0.000  0.000    3.64   0.00   0.00      0      0  303.6   0.10   0.07    0.0   0.40    0.29    0.29    0.25    0.06    0.00    0.00    0.00    0.00    0.00    0.00        2       9
 1981 118    27    12    2.2      0  0.129     41     26      0     84     67     67      0     0.0  0.000      0      0  0.000  0.000  0.000  0.000  0.000  0.000  0.000    3.64   0.00   0.00      0      0  314.7   0.11   0.07    0.0   0.42    0.29    0.29    0.25    0.06    0.00    0.00    0.00    0.00    0.00    0.00        2      10
 1981 119    28    13    2.5      0  0.157     47     31      0     85     78     78      0     0.0  0.000      0      0  0.000  0.000  0.000  0.000  0.000  0.000  0.000    3.58   0.00   0.00      0      0  332.8   0.12   0.08    0.0   0.44    0.30    0.30    0.25    0.07    0.01    0.00    0.00    0.00    0.00    0.00        2      12
 1981 120    29    14    2.8      0  0.183     53     37      0     87     90     90      0     0.0  0.000      0      0  0.000  0.000  0.000  0.000  0.000  0.000  0.000    3.55   0.00   0.00      0      0  347.2   0.12   0.09    0.0   0.46    0.30    0.30    0.26    0.07    0.01    0.00    0.00    0.00    0.00    0.00        3      14
 1981 121    30    15    3.1      0  0.236     64     40      0     87    104    104      0     0.0  0.000      0      0  0.000  0.000  0.000  0.000  0.000  0.000  0.000    3.54   0.00   0.00      0      0  367.4   0.13   0.10    0.0   0.48    0.30    0.30    0.26    0.07    0.01    0.00    0.00    0.00    0.00    0.00        4      16
 1981 122    31    16    3.4      0  0.290     76     46      0     87    122    122      0     0.0  0.000      0      0  0.000  0.000  0.000  0.000  0.000  0.000  0.000    3.53   0.00   0.00      0      0  379.3   0.14   0.11    0.0   0.50    0.30    0.30    0.26    0.07    0.01    0.00    0.00    0.00    0.00    0.00        4      17
 1981 123    32    17    3.7      0  0.343     88     54      0     89    142    142      0     0.0  0.000      0      0  0.000  0.000  0.000  0.000  0.000  0.000  0.000    3.52   0.00   0.00      0      0  388.7   0.15   0.13    0.0   0.52    0.30    0.30    0.26    0.08    0.02    0.00    0.00    0.00    0.00    0.00        5      19
 1981 124    33    18    3.9      0  0.394     99     66      0     91    165    165      0     0.0  0.000      0      0  0.000  0.000  0.000  0.000  0.000  0.000  0.000    3.51   0.00   0.00      0      0  397.7   0.17   0.15    0.0   0.54    0.31    0.31    0.26    0.08    0.02    0.00    0.00    0.00    0.00    0.00        6      21
 1981 125    34    19    4.2      0  0.445    110     80      0     94    190    190      0     0.0  0.000      0      0  0.000  0.000  0.000  0.000  0.000  0.000  0.000    3.51   0.00   0.00      0      0  403.5   0.18   0.17    0.0   0.56    0.31    0.31    0.26    0.09    0.02    0.00    0.00    0.00    0.00    0.00        7      23
 1981 126    35    20    4.5      0  0.548    131     87      0     94    218    218      0     0.0  0.000      0      0  0.000  0.000  0.000  0.000  0.000  0.000  0.000    3.53   0.00   0.00      0      0  417.2   0.19   0.19    0.0   0.57    0.31    0.31    0.26    0.09    0.03    0.00    0.00    0.00    0.00    0.00        8      25
 1981 127    36    21    4.8      0  0.670    159     96      0     95    254    254      0     0.0  0.000      0      0  0.000  0.000  0.000  0.000  0.000  0.000  0.000    3.55   0.00   0.00      0      0  421.8   0.21   0.21    0.0   0.59    0.32    0.32    0.26    0.09    0.03    0.00    0.00    0.00    0.00    0.00       10      27
 1981 128    37    22    5.0      0  0.767    181    108      0     98    289    289      0     0.0  0.000      0      0  0.000  0.000  0.000  0.000  0.000  0.000  0.000    3.55   0.00   0.00      0      0  423.7   0.22   0.23    0.0   0.61    0.32    0.32    0.27    0.09    0.03    0.00    0.00    0.00    0.00    0.00       11      28
 1981 129    38    23    5.3      0  0.893    210    126      0    101    336    336      0     0.0  0.000      0      0  0.000  0.000  0.000  0.000  0.000  0.000  0.000    3.56   0.00   0.00      0      0  424.4   0.24   0.24    0.0   0.62    0.33    0.33    0.27    0.10    0.04    0.01    0.00    0.00    0.00    0.00       13      30
 1981 130    39    24    5.6      0  1.045    244    146      0    105    389    389      0     0.0  0.000      0      0  0.000  0.000  0.000  0.000  0.000  0.000  0.000    3.56   0.00   0.00      0      0  429.2   0.26   0.26    0.0   0.64    0.34    0.34    0.28    0.10    0.04    0.01    0.00    0.00    0.00    0.00       16      32
 1981 131    40    25    5.9      0  1.215    281    169      0    110    450    450      0     0.0  0.000      0      0  0.000  0.000  0.000  0.000  0.000  0.000  0.000    3.57   0.00   0.00      0      0  432.4   0.28   0.29    0.0   0.66    0.35    0.35    0.29    0.11    0.05    0.01    0.00    0.00    0.00    0.00       18      35
 1981 132    41    26    6.2      0  1.407    324    196      0    116    520    520      0     0.0  0.000      0      0  0.000  0.000  0.000  0.000  0.000  0.000  0.000    3.57   0.00   0.00      0      0  434.7   0.31   0.31    0.0   0.67    0.36    0.36    0.30    0.12    0.05    0.02    0.00    0.00    0.00    0.00       22      37
 1981 133    42    27    6.5      0  1.611    368    227      0    123    595    595      0     0.0  0.000      0      0  0.000  0.000  0.000  0.000  0.000  0.000  0.000    3.59   0.00   0.00      0      0  437.2   0.33   0.33    0.0   0.69    0.38    0.38    0.31    0.13    0.06    0.02    0.00    0.00    0.00    0.00       29      39
 1981 134    43    28    6.8      1  1.796    408    261      0    131    669    669      0     0.0  0.000      0      0  0.000  0.000  0.000  0.000  0.000  0.000  0.000    3.65   0.00   0.00      0      0  439.9   0.36   0.35    0.0   0.71    0.40    0.40    0.32    0.14    0.07    0.03    0.00    0.00    0.00    0.00       46      42
 1981 135    44    29    7.1      1  1.946    450    300      0    139    750    750      0     0.0  0.000      0      0  0.000  0.000  0.000  0.000  0.000  0.000  0.000    3.70   0.00   0.00      0      0  432.8   0.39   0.37    0.0   0.72    0.42    0.42    0.34    0.15    0.08    0.03    0.00    0.00    0.00    0.00       66      45
 1981 136    45    30    7.3      1  2.097    485    339      0    147    823    823      0     0.0  0.000      0      0  0.000  0.000  0.000  0.000  0.000  0.000  0.000    3.76   0.00   0.00      0      0  432.7   0.42   0.39    0.0   0.74    0.43    0.43    0.35    0.16    0.08    0.04    0.01    0.00    0.00    0.00       90      47
 1981 137    46    31    7.6      3  2.224    524    385      0    157    909    909      0     0.0  0.000      0      0  0.000  0.000  0.000  0.000  0.000  0.000  0.000    3.82   0.00   0.00      0      0  424.6   0.45   0.41    0.0   0.76    0.46    0.46    0.36    0.17    0.09    0.04    0.01    0.00    0.00    0.00      117      51
 1981 138    47    32    7.9      3  2.317    560    435      0    166    995    998      0     0.0  0.000      3      3  0.000  0.000  0.000  0.000  0.000  0.000  0.000    3.89   0.00   0.00      0      3  413.8   0.48   0.44    0.0   0.77    0.48    0.48    0.38    0.18    0.10    0.05    0.01    0.00    0.00    0.00      149      54
 1981 139    48    33    8.2      3  2.417    602    489      0    175   1091   1105      0     0.0  0.000     14     13  0.000  0.000  0.000  0.000  0.000  0.000  0.000    3.90   0.00   0.01      0     14  401.7   0.51   0.45    0.0   0.79    0.50    0.50    0.39    0.20    0.11    0.05    0.02    0.00    0.00    0.00      171      57
 1981 140    49    34    8.5      3  2.512    644    545      0    184   1189   1222      0     0.0  0.000     33     24  0.000  0.000  0.000  0.000  0.000  0.000  0.000    3.90   0.00   0.03      0     33  390.2   0.54   0.47    0.0   0.81    0.52    0.52    0.41    0.21    0.12    0.06    0.02    0.00    0.00    0.00      189      61
 1981 141    50    35    8.8      3  2.591    682    600      0    192   1282   1344      0     0.0  0.000     62     35  0.000  0.000  0.000  0.000  0.000  0.000  0.000    3.89   0.00   0.05      0     62  380.2   0.57   0.49    0.0   0.82    0.53    0.53    0.42    0.22    0.12    0.06    0.03    0.00    0.00    0.00      206      65
 1981 142    51    36    9.1      3  2.653    717    655      0    199   1373   1472      0     0.0  0.000     99     46  0.000  0.000  0.000  0.000  0.000  0.000  0.000    3.87   0.00   0.07      0     99  369.8   0.60   0.51    0.0   0.84    0.55    0.55    0.43    0.22    0.13    0.06    0.03    0.00    0.00    0.00      221      69
 1981 143    52    37    9.4      3  2.693    745    703      0    204   1448   1596      0     0.0  0.000    148     58  0.000  0.000  0.000  0.000  0.000  0.000  0.000    3.86   0.00   0.09      0    148  361.6   0.64   0.53    0.0   0.86    0.56    0.56    0.44    0.23    0.14    0.07    0.03    0.00    0.00    0.00      236      73
 1981 144    53    38    9.7      5  2.722    770    750      0    209   1520   1727      0     0.0  0.000    207     70  0.000  0.000  0.000  0.000  0.000  0.000  0.000    3.83   0.00   0.12      0    207  353.4   0.67   0.55    0.0   0.87    0.57    0.57    0.45    0.24    0.14    0.07    0.03    0.00    0.00    0.00      248      78
 1981 145    54    39   10.0      5  2.737    791    791      0    212   1582   1857     11     0.0  0.000    275     82  0.000  0.000  0.000  0.000  0.000  0.000  0.000    3.81   0.00   0.15      0    275  346.1   0.70   0.56    0.0   0.89    0.58    0.58    0.45    0.24    0.14    0.07    0.04    0.00    0.00    0.00      260      82
 1981 146    55    40   10.3      5  2.739    806    827      4    215   1633   1986     45     9.8  0.002    354     95  0.000  0.000  0.000  0.000  0.000  0.000  0.000    3.78   1.25   0.18      0    354  339.9   0.73   0.57    0.0   0.90    0.58    0.58    0.45    0.24    0.15    0.07    0.04    0.00    0.00    0.00      274      86
 1981 147    56    41   10.3      5  2.726    814    854     22    215   1668   2116     80    27.6  0.010    448    108  0.000  0.000  0.000  0.000  0.000  0.000  0.000    3.76   4.92   0.21      0    448  334.9   0.77   0.59    0.0   0.92    0.58    0.58    0.45    0.25    0.15    0.08    0.04    0.00    0.00    0.00      287      91
 1981 148    57    42   10.3      5  2.700    817    877     53    215   1693   2249    116    45.7  0.024    556    120  0.000  0.000  0.000  0.000  0.000  0.000  0.000    3.74   9.54   0.25      0    556  330.6   0.80   0.60    0.0   0.94    0.58    0.58    0.45    0.25    0.15    0.08    0.04    0.01    0.00    0.00      302      95
 1981 149    58    43   10.3      5  2.653    807    883     98    213   1690   2371    154    63.7  0.042    681    133  0.000  0.000  0.000  0.000  0.000  0.000  0.000    3.68  14.46   0.29      0    681  328.5   0.84   0.60    0.0   0.95    0.57    0.57    0.45    0.24    0.15    0.08    0.04    0.01    0.00    0.00      318     100
 1981 150    59    44   10.3      5  2.598    793    881    159    210   1673   2494    195    81.5  0.064    821    146  0.000  0.000  0.000  0.000  0.000  0.000  0.000    3.63  19.32   0.33      0    821  327.8   0.87   0.60    0.0   0.97    0.56    0.56    0.44    0.24    0.15    0.07    0.04    0.01    0.00    0.00      334     104
 1981 151    60    45   10.3      5  2.538    772    867    234    205   1639   2616    237    99.1  0.090    976    159  0.000  0.000  0.000  0.000  0.000  0.000  0.000    3.57  24.01   0.37      0    976  328.8   0.87   0.60    0.0   0.98    0.55    0.55    0.43    0.23    0.14    0.07    0.04    0.01    0.00    0.00      352     108
 1981 152    61    46   10.3      5  2.471    749    853    328    200   1602   2728    280   117.1  0.120   1126    172  0.000  0.000  0.000  0.000  0.000  0.000  0.000    3.50  29.12   0.41      0   1126  330.1   0.87   0.60    0.0   0.98    0.54    0.54    0.42    0.23    0.14    0.07    0.04    0.01    0.00    0.00      370     113
 1981 153    62    47   10.3      5  2.401    724    838    437    195   1563   2844    324   134.9  0.154   1281    181  0.000  0.000  0.000  0.000  0.000  0.000  0.000    3.42  34.14   0.45      0   1281  331.4   0.87   0.60    0.0   0.98    0.53    0.53    0.41    0.23    0.14    0.07    0.04    0.01    0.00    0.00      390     117
 1981 154    63    48   10.3      5  2.329    700    823    561    191   1523   2964    369   152.1  0.189   1441    188  0.000  0.000  0.000  0.000  0.000  0.000  0.000    3.33  38.93   0.49      0   1441  332.7   0.87   0.60    0.0   1.00    0.52    0.52    0.40    0.22    0.13    0.07    0.04    0.01    0.00    0.00      410     121
 1981 155    64    49   10.3      5  2.254    675    808    702    186   1483   3084    413   169.9  0.228   1601    193  0.000  0.000  0.000  0.000  0.000  0.000  0.000    3.24  43.87   0.52      0   1601  334.1   0.87   0.60    0.0   1.00    0.51    0.51    0.40    0.22    0.13    0.07    0.04    0.01    0.00    0.00      432     125
 1981 156    65    50   10.3      7  2.177    649    794    860    182   1443   3201    458   187.7  0.269   1758    195  0.000  0.000  0.000  0.000  0.000  0.000  0.000    3.13  48.93   0.55      0   1758  335.4   0.87   0.60    0.0   1.02    0.50    0.50    0.39    0.21    0.13    0.07    0.04    0.01    0.00    0.00      454     129
 1981 157    66    51   10.3      7  1.607    477    737   1027    177   1214   3119    497   206.8  0.329   1905    193  0.000  0.000  0.000  0.000  0.000  0.000  0.000    2.93  53.94   0.61      0   1905  336.8   0.87   0.60    0.0   1.02    0.49    0.49    0.38    0.21    0.13    0.06    0.03    0.01    0.00    0.00      675     133
 1981 158    67    52   10.3      7  1.188    351    694   1150    173   1045   3050    507   226.9  0.377   2005    170  0.000  0.000  0.000  0.000  0.000  0.000  0.000    2.76  57.33   0.66      0   2005  338.3   0.87   0.60    0.0   1.02    0.48    0.48    0.37    0.20    0.12    0.06    0.03    0.00    0.00    0.00      842     137
 1981 159    68    53   10.3      7  0.880    259    661   1249    170    920   3016    507   246.5  0.414   2096    170  0.000  0.000  0.000  0.000  0.000  0.000  0.000    2.60  59.57   0.69      0   2096  339.7   0.87   0.60    0.0   1.02    0.47    0.47    0.36    0.20    0.12    0.06    0.03    0.00    0.00    0.00      956     140
 1981 160    69    54   10.3      7  0.653    191    636   1325    166    828   2993    507   261.5  0.443   2165    160  0.000  0.000  0.000  0.000  0.000  0.000  0.000    2.47  61.19   0.72      0   2165  341.1   0.87   0.60    0.0   1.02    0.46    0.46    0.36    0.19    0.12    0.06    0.03    0.00    0.00    0.00     1041     144
 1981 161    70    55   10.3      7  0.485    142    617   1384    163    758   2976    507   273.3  0.465   2218    152  0.000  0.000  0.000  0.000  0.000  0.000  0.000    2.34  62.43   0.75      0   2218  342.5   0.87   0.60    0.0   1.02    0.45    0.45    0.35    0.19    0.12    0.06    0.03    0.00    0.00    0.00     1103     147
 1981 162    71    56   10.3      7  0.360    105    601   1429    159    706   2961    507   282.1  0.483   2255    148  0.000  0.000  0.000  0.000  0.000  0.000  0.000    2.22  63.37   0.76      0   2255  343.9   0.87   0.60    0.0   1.02    0.44    0.44    0.34    0.19    0.11    0.06    0.03    0.00    0.00    0.00     1149     151
 1981 163    72    57   10.3      7  0.268     78    589   1459    155    667   2946    507   288.0  0.495   2279    145  0.000  0.000  0.000  0.000  0.000  0.000  0.000    2.11  64.01   0.77      0   2279  345.2   0.87   0.60    0.0   1.02    0.43    0.43    0.33    0.18    0.11    0.06    0.03    0.00    0.00    0.00     1183     154
 1981 164    73    58   10.3      7  0.200     58    579   1480    152    637   2932    507   292.1  0.505   2295    145  0.000  0.000  0.000  0.000  0.000  0.000  0.000    2.04  64.47   0.78      0   2295  346.5   0.87   0.60    0.0   1.02    0.42    0.42    0.33    0.18    0.11    0.06    0.03    0.00    0.00    0.00     1208     157
 1981 165    74    59   10.3      8  0.149     43    572   1491    149    615   2919    507   294.4  0.511   2304    145  0.000  0.000  0.000  0.000  0.000  0.000  0.000    2.00  64.74   0.79      0   2304  347.8   0.87   0.60    0.0   1.02    0.41    0.41    0.32    0.17    0.11    0.05    0.03    0.00    0.00    0.00     1227     160

*DSSAT Cropping System Model Ver. 4.6.1.000 -release      JUL 11, 2017; 16:24:48
                                                                                
*RUN   3        : SIM                       CRGRO046 4\000004    1              
 MODEL          : CRGRO046 - Dry bean                                           
 EXPERIMENT     : 4\000004 BN PALMIRA_ANALISIS SENSIBILIDAD                     
 DATA PATH      : D:\B\0\00000                                                  
 TREATMENT  1   : SIM                       CRGRO046                            
  
!                                                                                                                                                                                                                                                    Root Dens. (cm/cm3) by soil depth (cm):
!                                                                                                                                                                                                                                                    0-5    5-15   15-25   25-35   35-50   50-65   65-80   80-99  99-122 122-209
@YEAR DOY   DAS   DAP   L#SD   GSTD   LAID   LWAD   SWAD   GWAD   RWAD   VWAD   CWAD   G#AD    GWGD   HIAD   PWAD   P#AD   WSPD   WSGD   NSTD  PST1A  PST2A   KSTD   EWSD    LN%D   SH%D   HIPD   PWDD   PWTD   SLAD   CHTD   CWID   NWAD   RDPD    RL1D    RL2D    RL3D    RL4D    RL5D    RL6D    RL7D    RL8D    RL9D   RL10D    SNW0C   SNW1C
 1982 106    15     0    0.0      0  0.000      0      0      0      0      0      0      0     0.0  0.000      0      0  0.000  0.000  0.000  0.000  0.000  0.000  0.000    0.00   0.00   0.00      0      0    0.0   0.00   0.00    0.0   0.00    0.00    0.00    0.00    0.00    0.00    0.00    0.00    0.00    0.00    0.00        0       0
 1982 107    16     1    0.0      0  0.000      0      0      0      0      0      0      0     0.0  0.000      0      0  0.000  0.000  0.000  0.000  0.000  0.000  0.000    0.00   0.00   0.00      0      0    0.0   0.00   0.00    0.0   0.00    0.00    0.00    0.00    0.00    0.00    0.00    0.00    0.00    0.00    0.00        0       0
 1982 108    17     2    0.0      0  0.000      0      0      0      0      0      0      0     0.0  0.000      0      0  0.000  0.000  0.000  0.000  0.000  0.000  0.000    0.00   0.00   0.00      0      0    0.0   0.00   0.00    0.0   0.00    0.00    0.00    0.00    0.00    0.00    0.00    0.00    0.00    0.00    0.00        0       0
 1982 109    18     3    0.0      0  0.000      0      0      0      0      0      0      0     0.0  0.000      0      0  0.000  0.000  0.000  0.000  0.000  0.000  0.000    0.00   0.00   0.00      0      0    0.0   0.00   0.00    0.0   0.00    0.00    0.00    0.00    0.00    0.00    0.00    0.00    0.00    0.00    0.00        0       0
 1982 110    19     4    0.0      0  0.000      0      0      0      0      0      0      0     0.0  0.000      0      0  0.000  0.000  0.000  0.000  0.000  0.000  0.000    0.00   0.00   0.00      0      0    0.0   0.00   0.00    0.0   0.00    0.00    0.00    0.00    0.00    0.00    0.00    0.00    0.00    0.00    0.00        0       0
 1982 111    20     5    0.2      0  0.079     31     13      0     43     44     44      0     0.0  0.000      0      0  0.000  0.000  0.000  0.000  0.000  0.000  0.000    3.84   0.00   0.00      0      0  256.8   0.04   0.03    0.0   0.27    0.15    0.15    0.15    0.00    0.00    0.00    0.00    0.00    0.00    0.00        0       1
 1982 112    21     6    0.5      0  0.082     31     14      0     51     45     45      0     0.0  0.000      0      0  0.000  0.000  0.664  0.000  0.000  0.000  0.000    3.78   0.00   0.00      0      0  261.1   0.05   0.03    0.0   0.29    0.18    0.18    0.18    0.01    0.00    0.00    0.00    0.00    0.00    0.00        0       2
 1982 113    22     7    0.8      0  0.084     32     15      0     59     46     46      0     0.0  0.000      0      0  0.000  0.000  0.741  0.000  0.000  0.000  0.000    3.73   0.00   0.00      0      0  264.7   0.06   0.04    0.0   0.31    0.21    0.21    0.20    0.02    0.00    0.00    0.00    0.00    0.00    0.00        0       3
 1982 114    23     8    1.1      0  0.088     32     16      0     67     49     49      0     0.0  0.000      0      0  0.000  0.000  0.543  0.000  0.000  0.000  0.000    3.71   0.00   0.00      0      0  270.2   0.07   0.04    0.0   0.33    0.24    0.24    0.22    0.03    0.00    0.00    0.00    0.00    0.00    0.00        0       4
 1982 115    24     9    1.4      0  0.092     33     18      0     74     51     51      0     0.0  0.000      0      0  0.000  0.000  0.485  0.000  0.000  0.000  0.000    3.69   0.00   0.00      0      0  275.5   0.08   0.05    0.0   0.36    0.26    0.26    0.23    0.04    0.00    0.00    0.00    0.00    0.00    0.00        1       6
 1982 116    25    10    1.7      0  0.097     34     21      0     80     55     55      0     0.0  0.000      0      0  0.000  0.000  0.401  0.000  0.000  0.000  0.000    3.66   0.00   0.00      0      0  283.4   0.09   0.06    0.0   0.38    0.28    0.28    0.25    0.05    0.00    0.00    0.00    0.00    0.00    0.00        1       7
 1982 117    26    11    2.0      0  0.112     38     25      0     83     63     63      0     0.0  0.000      0      0  0.000  0.000  0.118  0.000  0.000  0.000  0.000    3.65   0.00   0.00      0      0  296.9   0.10   0.07    0.0   0.40    0.29    0.29    0.25    0.06    0.00    0.00    0.00    0.00    0.00    0.00        2       9
 1982 118    27    12    2.2      0  0.134     42     28      0     84     70     70      0     0.0  0.000      0      0  0.000  0.000  0.058  0.000  0.000  0.000  0.000    3.60   0.00   0.00      0      0  321.5   0.11   0.07    0.0   0.42    0.29    0.29    0.25    0.06    0.00    0.00    0.00    0.00    0.00    0.00        2      10
 1982 119    28    13    2.5      0  0.160     47     33      0     85     80     80      0     0.0  0.000      0      0  0.000  0.000  0.000  0.000  0.000  0.000  0.000    3.57   0.00   0.00      0      0  339.5   0.12   0.08    0.0   0.44    0.30    0.30    0.25    0.07    0.01    0.00    0.00    0.00    0.00    0.00        2      12
 1982 120    29    14    2.8      0  0.189     54     39      0     87     93     93      0     0.0  0.000      0      0  0.000  0.000  0.000  0.000  0.000  0.000  0.000    3.53   0.00   0.00      0      0  351.7   0.13   0.09    0.0   0.46    0.30    0.30    0.26    0.07    0.01    0.00    0.00    0.00    0.00    0.00        3      14
 1982 121    30    15    3.1      0  0.243     66     42      0     87    108    108      0     0.0  0.000      0      0  0.000  0.000  0.000  0.000  0.000  0.000  0.000    3.53   0.00   0.00      0      0  369.7   0.14   0.10    0.0   0.48    0.30    0.30    0.25    0.07    0.01    0.00    0.00    0.00    0.00    0.00        4      16
 1982 122    31    16    3.4      0  0.298     77     48      0     87    126    126      0     0.0  0.000      0      0  0.000  0.000  0.000  0.000  0.000  0.000  0.000    3.52   0.00   0.00      0      0  384.9   0.15   0.11    0.0   0.50    0.30    0.30    0.26    0.07    0.01    0.00    0.00    0.00    0.00    0.00        4      18
 1982 123    32    17    3.7      0  0.352     90     57      0     89    147    147      0     0.0  0.000      0      0  0.000  0.000  0.000  0.000  0.000  0.000  0.000    3.51   0.00   0.00      0      0  393.1   0.16   0.13    0.0   0.52    0.30    0.30    0.26    0.08    0.02    0.00    0.00    0.00    0.00    0.00        5      19
 1982 124    33    18    4.0      0  0.407    101     69      0     91    171    171      0     0.0  0.000      0      0  0.000  0.000  0.000  0.000  0.000  0.000  0.000    3.51   0.00   0.00      0      0  400.9   0.17   0.15    0.0   0.54    0.31    0.31    0.26    0.08    0.02    0.00    0.00    0.00    0.00    0.00        6      21
 1982 125    34    19    4.3      0  0.464    114     84      0     94    197    197      0     0.0  0.000      0      0  0.000  0.000  0.000  0.000  0.000  0.000  0.000    3.50   0.00   0.00      0      0  409.0   0.18   0.17    0.0   0.56    0.31    0.31    0.26    0.09    0.02    0.00    0.00    0.00    0.00    0.00        7      23
 1982 126    35    20    4.6      0  0.572    138     92      0     94    229    229      0     0.0  0.000      0      0  0.000  0.000  0.000  0.000  0.000  0.000  0.000    3.53   0.00   0.00      0      0  414.7   0.20   0.20    0.0   0.58    0.31    0.31    0.26    0.09    0.03    0.00    0.00    0.00    0.00    0.00        9      25
 1982 127    36    21    4.9      0  0.702    166    101      0     95    267    267      0     0.0  0.000      0      0  0.000  0.000  0.000  0.000  0.000  0.000  0.000    3.55   0.00   0.00      0      0  422.0   0.22   0.22    0.0   0.60    0.32    0.32    0.26    0.09    0.03    0.00    0.00    0.00    0.00    0.00       10      27
 1982 128    37    22    5.2      0  0.831    194    117      0     99    311    311      0     0.0  0.000      0      0  0.000  0.000  0.000  0.000  0.000  0.000  0.000    3.55   0.00   0.00      0      0  428.0   0.23   0.24    0.0   0.62    0.32    0.32    0.27    0.09    0.03    0.01    0.00    0.00    0.00    0.00       12      29
 1982 129    38    23    5.5      0  0.976    226    136      0    102    361    361      0     0.0  0.000      0      0  0.000  0.000  0.000  0.000  0.000  0.000  0.000    3.56   0.00   0.00      0      0  432.6   0.26   0.26    0.0   0.63    0.33    0.33    0.27    0.10    0.04    0.01    0.00    0.00    0.00    0.00       14      31
 1982 130    39    24    5.8      0  1.135    261    158      0    107    419    419      0     0.0  0.000      0      0  0.000  0.000  0.000  0.000  0.000  0.000  0.000    3.56   0.00   0.00      0      0  434.7   0.28   0.29    0.0   0.65    0.34    0.34    0.28    0.11    0.04    0.01    0.00    0.00    0.00    0.00       17      34
 1982 131    40    25    6.1      0  1.320    302    183      0    112    485    485      0     0.0  0.000      0      0  0.000  0.000  0.000  0.000  0.000  0.000  0.000    3.57   0.00   0.00      0      0  437.6   0.30   0.31    0.0   0.67    0.35    0.35    0.29    0.11    0.05    0.02    0.00    0.00    0.00    0.00       20      36
 1982 132    41    26    6.4      0  1.521    347    213      0    119    560    560      0     0.0  0.000      0      0  0.000  0.000  0.000  0.000  0.000  0.000  0.000    3.57   0.00   0.00      0      0  438.5   0.33   0.33    0.0   0.68    0.37    0.37    0.30    0.12    0.06    0.02    0.00    0.00    0.00    0.00       24      38
 1982 133    42    27    6.7      1  1.714    386    245      0    126    631    631      0     0.0  0.000      0      0  0.000  0.000  0.000  0.000  0.000  0.000  0.000    3.63   0.00   0.00      0      0  443.9   0.36   0.35    0.0   0.70    0.39    0.39    0.31    0.13    0.06    0.02    0.00    0.00    0.00    0.00       40      41
 1982 134    43    28    7.0      1  1.886    427    281      0    134    708    708      0     0.0  0.000      0      0  0.000  0.000  0.000  0.000  0.000  0.000  0.000    3.69   0.00   0.00      0      0  441.8   0.39   0.38    0.0   0.72    0.40    0.40    0.33    0.14    0.07    0.03    0.00    0.00    0.00    0.00       60      44
 1982 135    44    29    7.3      1  2.037    468    322      0    143    790    790      0     0.0  0.000      0      0  0.000  0.000  0.000  0.000  0.000  0.000  0.000    3.75   0.00   0.00      0      0  435.5   0.42   0.40    0.0   0.74    0.42    0.42    0.34    0.16    0.08    0.03    0.01    0.00    0.00    0.00       83      47
 1982 136    45    30    7.6      3  2.153    508    368      0    152    876    876      0     0.0  0.000      0      0  0.000  0.000  0.000  0.000  0.000  0.000  0.000    3.82   0.00   0.00      0      0  424.0   0.45   0.42    0.0   0.75    0.45    0.45    0.36    0.17    0.09    0.04    0.01    0.00    0.00    0.00      112      50
 1982 137    46    31    7.9      3  2.251    545    416      0    162    961    964      0     0.0  0.000      3      4  0.000  0.000  0.000  0.000  0.000  0.000  0.000    3.89   0.00   0.00      0      3  413.1   0.48   0.44    0.0   0.77    0.47    0.47    0.37    0.18    0.10    0.04    0.01    0.00    0.00    0.00      144      53
 1982 138    47    32    8.2      3  2.364    583    465      0    170   1048   1063      0     0.0  0.000     15     14  0.000  0.000  0.000  0.000  0.000  0.000  0.000    3.91   0.00   0.01      0     15  405.5   0.51   0.46    0.0   0.79    0.49    0.49    0.39    0.19    0.11    0.05    0.02    0.00    0.00    0.00      167      56
 1982 139    48    33    8.5      3  2.465    624    516      0    179   1140   1175      0     0.0  0.000     35     24  0.000  0.000  0.000  0.000  0.000  0.000  0.000    3.90   0.00   0.03      0     35  395.2   0.54   0.48    0.0   0.80    0.50    0.50    0.40    0.20    0.11    0.05    0.02    0.00    0.00    0.00      183      60
 1982 140    49    34    8.8      3  2.547    660    566      0    186   1226   1290      0     0.0  0.000     64     35  0.000  0.000  0.000  0.000  0.000  0.000  0.000    3.89   0.00   0.05      0     64  386.1   0.57   0.50    0.0   0.82    0.52    0.52    0.41    0.21    0.12    0.06    0.02    0.00    0.00    0.00      199      64
 1982 141    50    35    9.1      3  2.605    686    607      0    191   1292   1396      0     0.0  0.000    104     46  0.000  0.000  0.000  0.000  0.000  0.000  0.000    3.88   0.00   0.07      0    104  380.1   0.60   0.52    0.0   0.83    0.53    0.53    0.42    0.21    0.12    0.06    0.03    0.00    0.00    0.00      213      67
 1982 142    51    36    9.3      3  2.658    714    652      0    196   1366   1518      0     0.0  0.000    152     57  0.000  0.000  0.000  0.000  0.000  0.000  0.000    3.85   0.00   0.10      0    152  372.2   0.63   0.53    0.0   0.85    0.54    0.54    0.43    0.22    0.13    0.06    0.03    0.00    0.00    0.00      224      71
 1982 143    52    37    9.6      5  2.692    741    698      0    201   1439   1649      0     0.0  0.000    209     69  0.000  0.000  0.000  0.000  0.000  0.000  0.000    3.83   0.00   0.13      0    209  363.2   0.66   0.55    0.0   0.87    0.55    0.55    0.43    0.23    0.13    0.07    0.03    0.00    0.00    0.00      236      75
 1982 144    53    38    9.9      5  2.712    764    741      0    205   1506   1782     13     0.0  0.000    276     81  0.000  0.000  0.000  0.000  0.000  0.000  0.000    3.81   0.00   0.15      0    276  354.8   0.70   0.56    0.0   0.88    0.56    0.56    0.44    0.23    0.14    0.07    0.03    0.00    0.00    0.00      248      79
 1982 145    54    39   10.2      5  2.709    772    765      5    206   1538   1894     46    10.9  0.003    356     94  0.000  0.000  0.000  0.000  0.000  0.000  0.000    3.78   1.43   0.19      0    356  350.6   0.73   0.58    0.0   0.90    0.56    0.56    0.44    0.23    0.14    0.07    0.04    0.00    0.00    0.00      260      83
 1982 146    55    40   10.2      5  2.702    783    794     23    207   1577   2025     82    28.4  0.011    449    105  0.000  0.000  0.000  0.000  0.000  0.000  0.000    3.77   5.17   0.22      0    449  345.1   0.77   0.59    0.0   0.91    0.56    0.56    0.44    0.24    0.14    0.07    0.04    0.00    0.00    0.00      272      87
 1982 147    56    41   10.2      5  2.676    782    808     56    206   1590   2148    119    46.7  0.026    558    118  0.000  0.000  0.000  0.000  0.000  0.000  0.000    3.75   9.95   0.26      0    558  342.2   0.80   0.60    0.0   0.93    0.56    0.56    0.44    0.23    0.14    0.07    0.04    0.00    0.00    0.00      285      92
 1982 148    57    42   10.2      5  2.634    774    813    102    204   1587   2269    158    64.7  0.045    682    130  0.000  0.000  0.000  0.000  0.000  0.000  0.000    3.70  15.00   0.30      0    682  340.3   0.83   0.60    0.0   0.94    0.55    0.55    0.43    0.23    0.14    0.07    0.04    0.00    0.00    0.00      298      96
 1982 149    58    43   10.2      5  2.583    760    810    164    200   1570   2390    195    84.4  0.069    821    142  0.000  0.000  0.000  0.000  0.000  0.000  0.000    3.64  20.02   0.34      0    821  339.9   0.87   0.60    0.0   0.96    0.54    0.54    0.42    0.23    0.14    0.07    0.04    0.00    0.00    0.00      313     100
 1982 150    59    44   10.2      5  2.526    741    799    240    196   1540   2513    235   102.0  0.095    973    155  0.000  0.000  0.000  0.000  0.000  0.000  0.000    3.59  24.66   0.39      0    973  340.8   0.87   0.60    0.0   0.98    0.53    0.53    0.42    0.22    0.14    0.07    0.04    0.00    0.00    0.00      328     104
 1982 151    60    45   10.2      5  2.463    720    787    330    191   1507   2633    278   118.7  0.125   1127    167  0.000  0.000  0.000  0.000  0.000  0.000  0.000    3.52  29.27   0.43      0   1127  341.9   0.87   0.60    0.0   0.99    0.52    0.52    0.41    0.22    0.13    0.07    0.04    0.00    0.00    0.00      346     108
 1982 152    61    46   10.2      5  2.395    698    773    436    187   1471   2751    322   135.6  0.159   1280    177  0.000  0.000  0.000  0.000  0.000  0.000  0.000    3.45  34.09   0.47      0   1280  343.2   0.87   0.60    0.0   1.01    0.51    0.51    0.40    0.21    0.13    0.07    0.03    0.00    0.00    0.00      364     113
 1982 153    62    47   10.2      5  2.324    675    760    560    182   1435   2869    361   155.3  0.195   1435    184  0.000  0.000  0.000  0.000  0.000  0.000  0.000    3.36  39.04   0.50      0   1435  344.5   0.87   0.60    0.0   1.01    0.50    0.50    0.39    0.21    0.13    0.06    0.03    0.00    0.00    0.00      384     117
 1982 154    63    48   10.2      5  2.249    650    746    699    178   1396   2981    446   156.8  0.235   1584    188  0.000  0.000  0.000  0.000  0.000  0.000  0.000    3.27  44.14   0.53      0   1584  345.9   0.87   0.60    0.0   1.01    0.49    0.49    0.38    0.21    0.12    0.06    0.03    0.00    0.00    0.00      408     121
 1982 155    64    49   10.2      5  2.174    626    734    858    173   1360   3085    485   176.9  0.278   1725    189  0.000  0.000  0.000  0.000  0.000  0.000  0.000    3.16  49.72   0.56      0   1725  347.0   0.87   0.60    0.0   1.01    0.48    0.48    0.37    0.20    0.12    0.06    0.03    0.00    0.00    0.00      432     124
 1982 156    65    50   10.2      7  2.103    604    722   1020    169   1326   3188    504   202.3  0.320   1861    181  0.000  0.000  0.000  0.000  0.000  0.000  0.000    3.05  54.78   0.58      0   1861  348.1   0.87   0.60    0.0   1.01    0.47    0.47    0.36    0.20    0.12    0.06    0.03    0.00    0.00    0.00      464     128
 1982 157    66    51   10.2      7  1.554    445    670   1176    165   1114   3123    504   233.2  0.377   2009    169  0.000  0.000  0.000  0.000  0.000  0.000  0.000    2.87  58.56   0.64      0   2009  349.5   0.87   0.60    0.0   1.01    0.46    0.46    0.36    0.19    0.12    0.06    0.03    0.00    0.00    0.00      661     132
 1982 158    67    52   10.2      7  1.150    328    633   1303    162    961   3089    504   258.3  0.422   2128    159  0.000  0.000  0.000  0.000  0.000  0.000  0.000    2.69  61.23   0.69      0   2128  350.2   0.87   0.60    0.0   1.01    0.45    0.45    0.35    0.19    0.11    0.06    0.03    0.00    0.00    0.00      806     135
 1982 159    68    53   10.2      7  0.851    242    602   1402    158    845   3064    504   277.9  0.458   2219    152  0.000  0.000  0.000  0.000  0.000  0.000  0.000    2.53  63.17   0.72      0   2219  351.6   0.87   0.60    0.0   1.01    0.44    0.44    0.34    0.18    0.11    0.06    0.03    0.00    0.00    0.00      913     139
 1982 160    69    54   10.2      7  0.631    179    579   1476    154    758   3044    504   292.7  0.485   2286    147  0.000  0.000  0.000  0.000  0.000  0.000  0.000    2.39  64.57   0.75      0   2286  353.1   0.87   0.60    0.0   1.01    0.43    0.43    0.33    0.18    0.11    0.06    0.03    0.00    0.00    0.00      991     142
 1982 161    70    55   10.2      7  0.469    132    561   1532    151    694   3029    504   303.7  0.506   2335    144  0.000  0.000  0.000  0.000  0.000  0.000  0.000    2.26  65.60   0.77      0   2335  354.5   0.87   0.60    0.0   1.01    0.42    0.42    0.33    0.18    0.11    0.05    0.03    0.00    0.00    0.00     1049     146
 1982 162    71    56   10.2      7  0.348     98    548   1573    147    645   3015    504   311.7  0.522   2370    144  0.000  0.000  0.000  0.000  0.000  0.000  0.000    2.14  66.36   0.79      0   2370  355.8   0.87   0.60    0.0   1.01    0.41    0.41    0.32    0.17    0.10    0.05    0.03    0.00    0.00    0.00     1092     149
 1982 163    72    57   10.2      7  0.259     73    536   1601    144    609   3002    504   317.4  0.533   2393    144  0.000  0.000  0.000  0.000  0.000  0.000  0.000    2.04  66.92   0.80      0   2393  357.2   0.87   0.60    0.0   1.01    0.40    0.40    0.31    0.17    0.10    0.05    0.03    0.00    0.00    0.00     1124     152
 1982 164    73    58   10.2      7  0.193     54    528   1619    141    582   2988    504   321.0  0.542   2407    144  0.000  0.000  0.000  0.000  0.000  0.000  0.000    1.97  67.28   0.81      0   2407  358.5   0.87   0.60    0.0   1.01    0.39    0.39    0.31    0.17    0.10    0.05    0.03    0.00    0.00    0.00     1148     155
 1982 165    74    59   10.2      8  0.145     40    521   1628    138    561   2974    504   322.8  0.547   2413    144  0.000  0.000  0.000  0.000  0.000  0.000  0.000    1.94  67.48   0.81      0   2413  359.8   0.87   0.60    0.0   1.01    0.38    0.38    0.30    0.16    0.10    0.05    0.03    0.00    0.00    0.00     1165     158

*DSSAT Cropping System Model Ver. 4.6.1.000 -release      JUL 11, 2017; 16:24:48
                                                                                
*RUN   4        : SIM                       CRGRO046 4\000004    1              
 MODEL          : CRGRO046 - Dry bean                                           
 EXPERIMENT     : 4\000004 BN PALMIRA_ANALISIS SENSIBILIDAD                     
 DATA PATH      : D:\B\0\00000                                                  
 TREATMENT  1   : SIM                       CRGRO046                            
  
!                                                                                                                                                                                                                                                    Root Dens. (cm/cm3) by soil depth (cm):
!                                                                                                                                                                                                                                                    0-5    5-15   15-25   25-35   35-50   50-65   65-80   80-99  99-122 122-209
@YEAR DOY   DAS   DAP   L#SD   GSTD   LAID   LWAD   SWAD   GWAD   RWAD   VWAD   CWAD   G#AD    GWGD   HIAD   PWAD   P#AD   WSPD   WSGD   NSTD  PST1A  PST2A   KSTD   EWSD    LN%D   SH%D   HIPD   PWDD   PWTD   SLAD   CHTD   CWID   NWAD   RDPD    RL1D    RL2D    RL3D    RL4D    RL5D    RL6D    RL7D    RL8D    RL9D   RL10D    SNW0C   SNW1C
 1983 106    15     0    0.0      0  0.000      0      0      0      0      0      0      0     0.0  0.000      0      0  0.000  0.000  0.000  0.000  0.000  0.000  0.000    0.00   0.00   0.00      0      0    0.0   0.00   0.00    0.0   0.00    0.00    0.00    0.00    0.00    0.00    0.00    0.00    0.00    0.00    0.00        0       0
 1983 107    16     1    0.0      0  0.000      0      0      0      0      0      0      0     0.0  0.000      0      0  0.000  0.000  0.000  0.000  0.000  0.000  0.000    0.00   0.00   0.00      0      0    0.0   0.00   0.00    0.0   0.00    0.00    0.00    0.00    0.00    0.00    0.00    0.00    0.00    0.00    0.00        0       0
 1983 108    17     2    0.0      0  0.000      0      0      0      0      0      0      0     0.0  0.000      0      0  0.000  0.000  0.000  0.000  0.000  0.000  0.000    0.00   0.00   0.00      0      0    0.0   0.00   0.00    0.0   0.00    0.00    0.00    0.00    0.00    0.00    0.00    0.00    0.00    0.00    0.00        0       0
 1983 109    18     3    0.0      0  0.000      0      0      0      0      0      0      0     0.0  0.000      0      0  0.000  0.000  0.000  0.000  0.000  0.000  0.000    0.00   0.00   0.00      0      0    0.0   0.00   0.00    0.0   0.00    0.00    0.00    0.00    0.00    0.00    0.00    0.00    0.00    0.00    0.00        0       0
 1983 110    19     4    0.0      0  0.000      0      0      0      0      0      0      0     0.0  0.000      0      0  0.000  0.000  0.000  0.000  0.000  0.000  0.000    0.00   0.00   0.00      0      0    0.0   0.00   0.00    0.0   0.00    0.00    0.00    0.00    0.00    0.00    0.00    0.00    0.00    0.00    0.00        0       0
 1983 111    20     5    0.2      0  0.079     31     13      0     43     44     44      0     0.0  0.000      0      0  0.000  0.000  0.000  0.000  0.000  0.000  0.000    3.84   0.00   0.00      0      0  256.7   0.04   0.03    0.0   0.27    0.15    0.15    0.15    0.00    0.00    0.00    0.00    0.00    0.00    0.00        0       1
 1983 112    21     6    0.5      0  0.082     31     14      0     51     45     45      0     0.0  0.000      0      0  0.000  0.000  0.654  0.000  0.000  0.000  0.000    3.78   0.00   0.00      0      0  261.7   0.05   0.03    0.0   0.29    0.18    0.18    0.18    0.01    0.00    0.00    0.00    0.00    0.00    0.00        0       2
 1983 113    22     7    0.8      0  0.084     32     15      0     59     46     46      0     0.0  0.000      0      0  0.000  0.000  0.740  0.000  0.000  0.000  0.000    3.72   0.00   0.00      0      0  265.3   0.06   0.04    0.0   0.31    0.21    0.21    0.20    0.02    0.00    0.00    0.00    0.00    0.00    0.00        0       3
 1983 114    23     8    1.1      0  0.087     32     16      0     67     48     48      0     0.0  0.000      0      0  0.000  0.000  0.595  0.000  0.000  0.000  0.000    3.70   0.00   0.00      0      0  271.2   0.07   0.04    0.0   0.33    0.24    0.24    0.22    0.03    0.00    0.00    0.00    0.00    0.00    0.00        0       4
 1983 115    24     9    1.4      0  0.091     33     18      0     74     51     51      0     0.0  0.000      0      0  0.000  0.000  0.487  0.000  0.000  0.000  0.000    3.68   0.00   0.00      0      0  277.5   0.08   0.05    0.0   0.36    0.26    0.26    0.23    0.04    0.00    0.00    0.00    0.00    0.00    0.00        1       6
 1983 116    25    10    1.7      0  0.096     34     21      0     80     55     55      0     0.0  0.000      0      0  0.000  0.000  0.375  0.000  0.000  0.000  0.000    3.66   0.00   0.00      0      0  285.2   0.09   0.06    0.0   0.38    0.28    0.28    0.24    0.05    0.00    0.00    0.00    0.00    0.00    0.00        1       7
 1983 117    26    11    2.0      0  0.112     37     25      0     83     62     62      0     0.0  0.000      0      0  0.000  0.000  0.154  0.000  0.000  0.000  0.000    3.64   0.00   0.00      0      0  301.1   0.10   0.07    0.0   0.40    0.29    0.29    0.25    0.06    0.00    0.00    0.00    0.00    0.00    0.00        2       9
 1983 118    27    12    2.3      0  0.138     42     28      0     84     71     71      0     0.0  0.000      0      0  0.000  0.000  0.040  0.000  0.000  0.000  0.000    3.59   0.00   0.00      0      0  326.2   0.11   0.07    0.0   0.42    0.29    0.29    0.25    0.06    0.00    0.00    0.00    0.00    0.00    0.00        2      11
 1983 119    28    13    2.6      0  0.165     48     33      0     85     81     81      0     0.0  0.000      0      0  0.000  0.000  0.000  0.000  0.000  0.000  0.000    3.56   0.00   0.00      0      0  342.8   0.12   0.08    0.0   0.44    0.30    0.30    0.25    0.07    0.01    0.00    0.00    0.00    0.00    0.00        2      12
 1983 120    29    14    2.9      0  0.197     55     39      0     87     94     94      0     0.0  0.000      0      0  0.000  0.000  0.000  0.000  0.000  0.000  0.000    3.53   0.00   0.00      0      0  358.2   0.13   0.09    0.0   0.46    0.30    0.30    0.26    0.07    0.01    0.00    0.00    0.00    0.00    0.00        3      14
 1983 121    30    15    3.2      0  0.253     67     42      0     87    110    110      0     0.0  0.000      0      0  0.000  0.000  0.000  0.000  0.000  0.000  0.000    3.52   0.00   0.00      0      0  374.7   0.14   0.10    0.0   0.48    0.30    0.30    0.25    0.07    0.01    0.00    0.00    0.00    0.00    0.00        4      16
 1983 122    31    16    3.5      0  0.309     80     49      0     87    129    129      0     0.0  0.000      0      0  0.000  0.000  0.000  0.000  0.000  0.000  0.000    3.51   0.00   0.00      0      0  387.9   0.15   0.12    0.0   0.50    0.30    0.30    0.26    0.07    0.01    0.00    0.00    0.00    0.00    0.00        4      18
 1983 123    32    17    3.8      0  0.364     92     58      0     89    150    150      0     0.0  0.000      0      0  0.000  0.000  0.000  0.000  0.000  0.000  0.000    3.51   0.00   0.00      0      0  395.5   0.16   0.14    0.0   0.52    0.30    0.30    0.26    0.08    0.02    0.00    0.00    0.00    0.00    0.00        5      20
 1983 124    33    18    4.1      0  0.419    103     71      0     91    174    174      0     0.0  0.000      0      0  0.000  0.000  0.000  0.000  0.000  0.000  0.000    3.50   0.00   0.00      0      0  406.0   0.17   0.16    0.0   0.54    0.31    0.31    0.26    0.08    0.02    0.00    0.00    0.00    0.00    0.00        6      22
 1983 125    34    19    4.4      0  0.490    119     83      0     93    203    203      0     0.0  0.000      0      0  0.000  0.000  0.000  0.000  0.000  0.000  0.000    3.51   0.00   0.00      0      0  410.4   0.19   0.18    0.0   0.56    0.31    0.31    0.26    0.09    0.02    0.00    0.00    0.00    0.00    0.00        8      24
 1983 126    35    20    4.7      0  0.605    145     92      0     94    237    237      0     0.0  0.000      0      0  0.000  0.000  0.000  0.000  0.000  0.000  0.000    3.53   0.00   0.00      0      0  416.8   0.20   0.20    0.0   0.58    0.31    0.31    0.26    0.09    0.03    0.00    0.00    0.00    0.00    0.00        9      26
 1983 127    36    21    5.0      0  0.743    174    102      0     96    276    276      0     0.0  0.000      0      0  0.000  0.000  0.000  0.000  0.000  0.000  0.000    3.55   0.00   0.00      0      0  426.2   0.22   0.22    0.0   0.60    0.32    0.32    0.26    0.09    0.03    0.00    0.00    0.00    0.00    0.00       11      28
 1983 128    37    22    5.3      0  0.873    204    120      0     99    323    323      0     0.0  0.000      0      0  0.000  0.000  0.000  0.000  0.000  0.000  0.000    3.55   0.00   0.00      0      0  427.9   0.24   0.25    0.0   0.62    0.32    0.32    0.27    0.10    0.03    0.01    0.00    0.00    0.00    0.00       13      30
 1983 129    38    23    5.6      0  1.024    238    140      0    103    378    378      0     0.0  0.000      0      0  0.000  0.000  0.000  0.000  0.000  0.000  0.000    3.56   0.00   0.00      0      0  430.7   0.26   0.27    0.0   0.64    0.33    0.33    0.28    0.10    0.04    0.01    0.00    0.00    0.00    0.00       15      32
 1983 130    39    24    5.9      0  1.198    276    164      0    108    440    440      0     0.0  0.000      0      0  0.000  0.000  0.000  0.000  0.000  0.000  0.000    3.56   0.00   0.00      0      0  434.2   0.29   0.29    0.0   0.66    0.34    0.34    0.28    0.11    0.04    0.01    0.00    0.00    0.00    0.00       18      34
 1983 131    40    25    6.2      0  1.405    317    191      0    114    508    508      0     0.0  0.000      0      0  0.000  0.000  0.000  0.000  0.000  0.000  0.000    3.56   0.00   0.00      0      0  443.0   0.32   0.32    0.0   0.67    0.36    0.36    0.29    0.12    0.05    0.02    0.00    0.00    0.00    0.00       21      37
 1983 132    41    26    6.5      0  1.591    361    221      0    121    582    582      0     0.0  0.000      0      0  0.000  0.000  0.000  0.000  0.000  0.000  0.000    3.60   0.00   0.00      0      0  440.7   0.35   0.34    0.0   0.69    0.37    0.37    0.30    0.13    0.06    0.02    0.00    0.00    0.00    0.00       30      39
 1983 133    42    27    6.8      1  1.771    401    256      0    128    657    657      0     0.0  0.000      0      0  0.000  0.000  0.000  0.000  0.000  0.000  0.000    3.66   0.00   0.00      0      0  441.5   0.38   0.36    0.0   0.71    0.39    0.39    0.32    0.14    0.06    0.03    0.00    0.00    0.00    0.00       48      42
 1983 134    43    28    7.1      1  1.930    442    295      0    137    737    737      0     0.0  0.000      0      0  0.000  0.000  0.000  0.000  0.000  0.000  0.000    3.72   0.00   0.00      0      0  436.6   0.41   0.39    0.0   0.73    0.41    0.41    0.33    0.15    0.07    0.03    0.01    0.00    0.00    0.00       69      45
 1983 135    44    29    7.4      1  2.077    481    338      0    146    819    819      0     0.0  0.000      0      0  0.000  0.000  0.000  0.000  0.000  0.000  0.000    3.78   0.00   0.00      0      0  431.8   0.44   0.41    0.0   0.74    0.43    0.43    0.35    0.16    0.08    0.04    0.01    0.00    0.00    0.00       94      48
 1983 136    45    30    7.7      3  2.198    520    384      0    155    904    904      0     0.0  0.000      0      0  0.000  0.000  0.000  0.000  0.000  0.000  0.000    3.84   0.00   0.00      0      0  422.9   0.47   0.43    0.0   0.76    0.45    0.45    0.36    0.17    0.09    0.04    0.01    0.00    0.00    0.00      122      51
 1983 137    46    31    8.0      3  2.293    556    435      0    165    991    994      0     0.0  0.000      4      4  0.000  0.000  0.000  0.000  0.000  0.000  0.000    3.91   0.00   0.00      0      4  412.3   0.50   0.45    0.0   0.78    0.47    0.47    0.38    0.18    0.10    0.05    0.01    0.00    0.00    0.00      155      54
 1983 138    47    32    8.3      3  2.413    599    487      0    174   1086   1102      0     0.0  0.000     16     14  0.000  0.000  0.000  0.000  0.000  0.000  0.000    3.91   0.00   0.01      0     16  403.0   0.52   0.47    0.0   0.79    0.49    0.49    0.39    0.19    0.11    0.05    0.02    0.00    0.00    0.00      172      57
 1983 139    48    33    8.6      3  2.510    640    542      0    182   1182   1219      0     0.0  0.000     37     25  0.000  0.000  0.000  0.000  0.000  0.000  0.000    3.90   0.00   0.03      0     37  391.8   0.55   0.49    0.0   0.81    0.51    0.51    0.40    0.20    0.12    0.06    0.02    0.00    0.00    0.00      189      61
 1983 140    49    34    8.9      3  2.589    675    592      0    189   1267   1335      0     0.0  0.000     68     36  0.000  0.000  0.000  0.000  0.000  0.000  0.000    3.89   0.00   0.05      0     68  383.7   0.59   0.51    0.0   0.83    0.53    0.53    0.42    0.21    0.12    0.06    0.03    0.00    0.00    0.00      206      65
 1983 141    50    35    9.2      3  2.653    709    646      0    196   1355   1462      0     0.0  0.000    107     48  0.000  0.000  0.000  0.000  0.000  0.000  0.000    3.87   0.00   0.07      0    107  374.0   0.62   0.52    0.0   0.84    0.54    0.54    0.43    0.22    0.13    0.06    0.03    0.00    0.00    0.00      220      69
 1983 142    51    36    9.5      3  2.697    740    697      0    202   1436   1593      0     0.0  0.000    157     60  0.000  0.000  0.000  0.000  0.000  0.000  0.000    3.86   0.00   0.10      0    157  364.5   0.65   0.54    0.0   0.86    0.55    0.55    0.43    0.23    0.13    0.07    0.03    0.00    0.00    0.00      234      73
 1983 143    52    37    9.8      5  2.725    768    747      0    207   1515   1731      0     0.0  0.000    216     72  0.000  0.000  0.000  0.000  0.000  0.000  0.000    3.84   0.00   0.12      0    216  354.8   0.68   0.56    0.0   0.87    0.56    0.56    0.44    0.23    0.14    0.07    0.04    0.00    0.00    0.00      247      77
 1983 144    53    38   10.1      5  2.737    788    790      0    211   1578   1863     14     0.0  0.000    284     85  0.000  0.000  0.000  0.000  0.000  0.000  0.000    3.81   0.00   0.15      0    284  347.3   0.72   0.57    0.0   0.89    0.57    0.57    0.45    0.24    0.14    0.07    0.04    0.00    0.00    0.00      262      82
[...]
 2011 106    15     0    0.0      0  0.000      0      0      0      0      0      0      0     0.0  0.000      0      0  0.000  0.000  0.000  0.000  0.000  0.000  0.000    0.00   0.00   0.00      0      0    0.0   0.00   0.00    0.0   0.00    0.00    0.00    0.00    0.00    0.00    0.00    0.00    0.00    0.00    0.00        0       0
 2011 107    16     1    0.0      0  0.000      0      0      0      0      0      0      0     0.0  0.000      0      0  0.000  0.000  0.000  0.000  0.000  0.000  0.000    0.00   0.00   0.00      0      0    0.0   0.00   0.00    0.0   0.00    0.00    0.00    0.00    0.00    0.00    0.00    0.00    0.00    0.00    0.00        0       0
 2011 108    17     2    0.0      0  0.000      0      0      0      0      0      0      0     0.0  0.000      0      0  0.000  0.000  0.000  0.000  0.000  0.000  0.000    0.00   0.00   0.00      0      0    0.0   0.00   0.00    0.0   0.00    0.00    0.00    0.00    0.00    0.00    0.00    0.00    0.00    0.00    0.00        0       0
 2011 109    18     3    0.0      0  0.000      0      0      0      0      0      0      0     0.0  0.000      0      0  0.000  0.000  0.000  0.000  0.000  0.000  0.000    0.00   0.00   0.00      0      0    0.0   0.00   0.00    0.0   0.00    0.00    0.00    0.00    0.00    0.00    0.00    0.00    0.00    0.00    0.00        0       0
 2011 110    19     4    0.0      0  0.000      0      0      0      0      0      0      0     0.0  0.000      0      0  0.000  0.000  0.000  0.000  0.000  0.000  0.000    0.00   0.00   0.00      0      0    0.0   0.00   0.00    0.0   0.00    0.00    0.00    0.00    0.00    0.00    0.00    0.00    0.00    0.00    0.00        0       0
 2011 111    20     5    0.2      0  0.079     31     13      0     43     44     44      0     0.0  0.000      0      0  0.000  0.000  0.000  0.000  0.000  0.000  0.000    3.84   0.00   0.00      0      0  256.7   0.04   0.03    0.0   0.27    0.15    0.15    0.15    0.00    0.00    0.00    0.00    0.00    0.00    0.00        0       1
 2011 112    21     6    0.5      0  0.082     31     14      0     51     45     45      0     0.0  0.000      0      0  0.000  0.000  0.674  0.000  0.000  0.000  0.000    3.78   0.00   0.00      0      0  261.2   0.05   0.03    0.0   0.29    0.19    0.19    0.18    0.01    0.00    0.00    0.00    0.00    0.00    0.00        0       2
 2011 113    22     7    0.8      0  0.084     32     15      0     60     47     47      0     0.0  0.000      0      0  0.000  0.000  0.703  0.000  0.000  0.000  0.000    3.73   0.00   0.00      0      0  264.8   0.06   0.04    0.0   0.31    0.22    0.22    0.20    0.02    0.00    0.00    0.00    0.00    0.00    0.00        0       3
 2011 114    23     8    1.1      0  0.088     32     16      0     68     49     49      0     0.0  0.000      0      0  0.000  0.000  0.555  0.000  0.000  0.000  0.000    3.71   0.00   0.00      0      0  270.3   0.07   0.04    0.0   0.33    0.24    0.24    0.22    0.03    0.00    0.00    0.00    0.00    0.00    0.00        0       4
 2011 115    24     9    1.4      0  0.092     33     19      0     76     52     52      0     0.0  0.000      0      0  0.000  0.000  0.476  0.000  0.000  0.000  0.000    3.68   0.00   0.00      0      0  277.1   0.08   0.05    0.0   0.36    0.27    0.27    0.24    0.05    0.00    0.00    0.00    0.00    0.00    0.00        1       6
 2011 116    25    10    1.7      0  0.098     34     22      0     82     57     57      0     0.0  0.000      0      0  0.000  0.000  0.298  0.000  0.000  0.000  0.000    3.66   0.00   0.00      0      0  284.0   0.09   0.06    0.0   0.38    0.29    0.29    0.25    0.06    0.00    0.00    0.00    0.00    0.00    0.00        1       7
 2011 117    26    11    2.0      0  0.113     38     27      0     85     64     64      0     0.0  0.000      0      0  0.000  0.000  0.146  0.000  0.000  0.000  0.000    3.63   0.00   0.00      0      0  299.9   0.10   0.07    0.0   0.40    0.30    0.30    0.26    0.06    0.00    0.00    0.00    0.00    0.00    0.00        2       9
 2011 118    27    12    2.3      0  0.140     44     31      0     86     74     74      0     0.0  0.000      0      0  0.000  0.000  0.000  0.000  0.000  0.000  0.000    3.58   0.00   0.00      0      0  320.4   0.11   0.07    0.0   0.42    0.30    0.30    0.26    0.07    0.00    0.00    0.00    0.00    0.00    0.00        2      11
 2011 119    28    13    2.6      0  0.167     50     37      0     88     86     86      0     0.0  0.000      0      0  0.000  0.000  0.000  0.000  0.000  0.000  0.000    3.54   0.00   0.00      0      0  336.3   0.12   0.08    0.0   0.44    0.30    0.30    0.26    0.07    0.01    0.00    0.00    0.00    0.00    0.00        3      13
 2011 120    29    14    2.9      0  0.201     57     43      0     89    100    100      0     0.0  0.000      0      0  0.000  0.000  0.000  0.000  0.000  0.000  0.000    3.52   0.00   0.00      0      0  352.3   0.13   0.09    0.0   0.46    0.31    0.31    0.26    0.07    0.01    0.00    0.00    0.00    0.00    0.00        3      15
 2011 121    30    15    3.2      0  0.259     70     47      0     89    117    117      0     0.0  0.000      0      0  0.000  0.000  0.000  0.000  0.000  0.000  0.000    3.52   0.00   0.00      0      0  369.2   0.14   0.10    0.0   0.48    0.31    0.31    0.26    0.08    0.01    0.00    0.00    0.00    0.00    0.00        4      16
 2011 122    31    16    3.5      0  0.314     83     55      0     91    138    138      0     0.0  0.000      0      0  0.000  0.000  0.000  0.000  0.000  0.000  0.000    3.52   0.00   0.00      0      0  377.3   0.15   0.12    0.0   0.50    0.31    0.31    0.26    0.08    0.01    0.00    0.00    0.00    0.00    0.00        5      18
 2011 123    32    17    3.8      0  0.369     93     66      0     93    159    159      0     0.0  0.000      0      0  0.000  0.000  0.000  0.000  0.000  0.000  0.000    3.50   0.00   0.00      0      0  395.9   0.16   0.14    0.0   0.53    0.31    0.31    0.27    0.08    0.02    0.00    0.00    0.00    0.00    0.00        5      20
 2011 124    33    18    4.1      0  0.423    105     80      0     96    185    185      0     0.0  0.000      0      0  0.000  0.000  0.000  0.000  0.000  0.000  0.000    3.50   0.00   0.00      0      0  403.4   0.17   0.16    0.0   0.55    0.32    0.32    0.27    0.09    0.02    0.00    0.00    0.00    0.00    0.00        7      22
 2011 125    34    19    4.4      0  0.498    122     94      0     98    215    215      0     0.0  0.000      0      0  0.000  0.000  0.000  0.000  0.000  0.000  0.000    3.51   0.00   0.00      0      0  409.2   0.19   0.18    0.0   0.56    0.33    0.33    0.27    0.09    0.03    0.00    0.00    0.00    0.00    0.00        8      24
 2011 126    35    20    4.7      0  0.619    150    103      0     99    252    252      0     0.0  0.000      0      0  0.000  0.000  0.000  0.000  0.000  0.000  0.000    3.54   0.00   0.00      0      0  413.4   0.20   0.20    0.0   0.58    0.33    0.33    0.27    0.09    0.03    0.00    0.00    0.00    0.00    0.00        9      27
 2011 127    36    21    5.0      0  0.758    180    116      0    101    296    296      0     0.0  0.000      0      0  0.000  0.000  0.000  0.000  0.000  0.000  0.000    3.55   0.00   0.00      0      0  422.0   0.22   0.23    0.0   0.60    0.33    0.33    0.28    0.10    0.03    0.00    0.00    0.00    0.00    0.00       11      29
 2011 128    37    22    5.3      0  0.902    212    135      0    105    346    346      0     0.0  0.000      0      0  0.000  0.000  0.000  0.000  0.000  0.000  0.000    3.56   0.00   0.00      0      0  426.1   0.24   0.25    0.0   0.62    0.34    0.34    0.28    0.10    0.04    0.01    0.00    0.00    0.00    0.00       13      31
 2011 129    38    23    5.6      0  1.067    249    157      0    109    406    406      0     0.0  0.000      0      0  0.000  0.000  0.000  0.000  0.000  0.000  0.000    3.57   0.00   0.00      0      0  429.0   0.26   0.27    0.0   0.64    0.35    0.35    0.29    0.11    0.04    0.01    0.00    0.00    0.00    0.00       15      33
 2011 130    39    24    5.9      0  1.245    291    183      0    115    474    474      0     0.0  0.000      0      0  0.000  0.000  0.000  0.000  0.000  0.000  0.000    3.57   0.00   0.00      0      0  428.1   0.29   0.29    0.0   0.66    0.36    0.36    0.30    0.12    0.05    0.01    0.00    0.00    0.00    0.00       18      36
 2011 131    40    25    6.2      0  1.464    337    213      0    121    550    550      0     0.0  0.000      0      0  0.000  0.000  0.000  0.000  0.000  0.000  0.000    3.57   0.00   0.00      0      0  434.1   0.32   0.32    0.0   0.68    0.38    0.38    0.31    0.13    0.06    0.02    0.00    0.00    0.00    0.00       22      38
 2011 132    41    26    6.5      0  1.682    384    246      0    129    631    631      0     0.0  0.000      0      0  0.000  0.000  0.000  0.000  0.000  0.000  0.000    3.61   0.00   0.00      0      0  437.6   0.35   0.34    0.0   0.69    0.40    0.40    0.32    0.14    0.06    0.02    0.00    0.00    0.00    0.00       33      41
 2011 133    42    27    6.8      1  1.888    428    284      0    137    712    712      0     0.0  0.000      0      0  0.000  0.000  0.000  0.000  0.000  0.000  0.000    3.67   0.00   0.00      0      0  440.9   0.38   0.36    0.0   0.71    0.42    0.42    0.34    0.15    0.07    0.03    0.00    0.00    0.00    0.00       51      44
 2011 134    43    28    7.1      1  2.075    469    323      0    146    792    792      0     0.0  0.000      0      0  0.000  0.000  0.000  0.000  0.000  0.000  0.000    3.72   0.00   0.00      0      0  442.4   0.41   0.39    0.0   0.73    0.44    0.44    0.35    0.16    0.08    0.03    0.01    0.00    0.00    0.00       72      46
 2011 135    44    29    7.4      1  2.236    515    370      0    156    885    885      0     0.0  0.000      0      0  0.000  0.000  0.000  0.000  0.000  0.000  0.000    3.78   0.00   0.00      0      0  434.5   0.43   0.40    0.0   0.74    0.46    0.46    0.37    0.17    0.09    0.04    0.01    0.00    0.00    0.00       98      49
 2011 136    45    30    7.7      3  2.373    559    423      0    167    981    981      0     0.0  0.000      0      0  0.000  0.000  0.000  0.000  0.000  0.000  0.000    3.85   0.00   0.00      0      0  424.8   0.46   0.43    0.0   0.76    0.48    0.48    0.38    0.19    0.10    0.05    0.01    0.00    0.00    0.00      129      53
 2011 137    46    31    8.0      3  2.478    599    479      0    178   1078   1081      0     0.0  0.000      3      4  0.000  0.000  0.000  0.000  0.000  0.000  0.000    3.92   0.00   0.00      0      3  413.4   0.49   0.45    0.0   0.78    0.51    0.51    0.40    0.20    0.11    0.05    0.02    0.00    0.00    0.00      165      56
 2011 138    47    32    8.3      3  2.601    650    540      0    188   1190   1205      0     0.0  0.000     15     15  0.000  0.000  0.000  0.000  0.000  0.000  0.000    3.92   0.00   0.01      0     15  400.2   0.52   0.47    0.0   0.79    0.53    0.53    0.42    0.21    0.12    0.06    0.02    0.00    0.00    0.00      186      60
 2011 139    48    33    8.6      3  2.710    695    600      0    198   1296   1333      0     0.0  0.000     37     26  0.000  0.000  0.000  0.000  0.000  0.000  0.000    3.92   0.00   0.03      0     37  389.8   0.55   0.48    0.0   0.81    0.55    0.55    0.44    0.22    0.13    0.06    0.03    0.00    0.00    0.00      206      64
 2011 140    49    34    8.9      3  2.795    740    663      0    207   1403   1472      0     0.0  0.000     69     39  0.000  0.000  0.000  0.000  0.000  0.000  0.000    3.91   0.00   0.05      0     69  377.7   0.58   0.50    0.0   0.82    0.57    0.57    0.45    0.23    0.14    0.07    0.03    0.00    0.00    0.00      223      68
 2011 141    50    35    9.2      3  2.861    779    722      0    215   1501   1613      0     0.0  0.000    112     51  0.000  0.000  0.000  0.000  0.000  0.000  0.000    3.90   0.00   0.07      0    112  367.4   0.61   0.52    0.0   0.84    0.59    0.59    0.46    0.24    0.14    0.07    0.03    0.00    0.00    0.00      242      72
 2011 142    51    36    9.4      3  2.911    812    779      0    222   1591   1757      0     0.0  0.000    166     65  0.000  0.000  0.000  0.000  0.000  0.000  0.000    3.88   0.00   0.09      0    166  358.3   0.64   0.54    0.0   0.86    0.60    0.60    0.47    0.25    0.15    0.08    0.04    0.00    0.00    0.00      258      77
 2011 143    52    37    9.7      5  2.946    844    836      0    228   1680   1910      0     0.0  0.000    230     79  0.000  0.000  0.000  0.000  0.000  0.000  0.000    3.86   0.00   0.12      0    230  349.0   0.68   0.55    0.0   0.87    0.62    0.62    0.48    0.26    0.16    0.08    0.04    0.00    0.00    0.00      273      81
 2011 144    53    38   10.0      5  2.968    872    890      0    233   1762   2065     12     0.0  0.000    303     93  0.000  0.000  0.000  0.000  0.000  0.000  0.000    3.84   0.00   0.15      0    303  340.4   0.71   0.57    0.0   0.89    0.63    0.63    0.49    0.27    0.16    0.08    0.04    0.00    0.00    0.00      289      86
 2011 145    54    39   10.3      5  2.972    891    935      5    237   1826   2213     49     9.7  0.002    388    106  0.000  0.000  0.000  0.000  0.000  0.000  0.000    3.82   1.21   0.18      0    388  333.7   0.75   0.58    0.0   0.91    0.63    0.63    0.49    0.27    0.16    0.08    0.04    0.00    0.00    0.00      307      91
 2011 146    55    40   10.3      5  2.964    904    974     23    239   1878   2365     86    26.7  0.010    487    120  0.000  0.000  0.000  0.000  0.000  0.000  0.000    3.79   4.74   0.21      0    487  327.7   0.78   0.60    0.0   0.92    0.64    0.64    0.50    0.27    0.17    0.09    0.05    0.01    0.00    0.00      324      97
 2011 147    56    41   10.3      5  2.940    910   1003     56    239   1913   2514    127    43.8  0.022    601    134  0.000  0.000  0.000  0.000  0.000  0.000  0.000    3.77   9.26   0.24      0    601  323.1   0.82   0.60    0.0   0.94    0.64    0.64    0.50    0.27    0.17    0.09    0.05    0.01    0.00    0.00      344     102
 2011 148    57    42   10.3      5  2.898    905   1017    105    238   1923   2657    169    61.9  0.039    735    147  0.000  0.000  0.000  0.000  0.000  0.000  0.000    3.74  14.25   0.28      0    735  320.1   0.85   0.60    0.0   0.96    0.63    0.63    0.49    0.27    0.17    0.09    0.05    0.01    0.00    0.00      364     107
 2011 149    58    43   10.3      5  2.838    890   1018    170    234   1908   2792    213    79.6  0.061    884    161  0.000  0.000  0.000  0.000  0.000  0.000  0.000    3.68  19.20   0.32      0    884  318.9   0.85   0.60    0.0   0.97    0.62    0.62    0.48    0.27    0.17    0.09    0.05    0.01    0.00    0.00      386     112
 2011 150    59    44   10.3      5  2.771    869   1010    251    230   1880   2923    306    82.2  0.086   1044    174  0.000  0.000  0.000  0.000  0.000  0.000  0.000    3.62  24.06   0.36      0   1044  318.7   0.85   0.60    0.0   0.99    0.61    0.61    0.48    0.26    0.16    0.08    0.05    0.01    0.00    0.00      415     117
 2011 151    60    45   10.3      5  2.699    844    994    367    224   1838   3062    352   104.3  0.120   1224    188  0.000  0.000  0.000  0.000  0.000  0.000  0.000    3.55  30.01   0.40      0   1224  319.8   0.85   0.60    0.0   1.01    0.60    0.60    0.47    0.26    0.16    0.08    0.05    0.01    0.00    0.00      438     122
 2011 152    61    46   10.3      5  2.619    815    976    505    219   1792   3189    400   126.1  0.158   1397    199  0.000  0.000  0.000  0.000  0.000  0.000  0.000    3.47  36.14   0.44      0   1397  321.2   0.85   0.60    0.0   1.01    0.59    0.59    0.46    0.25    0.16    0.08    0.04    0.01    0.00    0.00      463     127
 2011 153    62    47   10.3      5  2.540    788    959    664    214   1747   3308    400   165.9  0.201   1561    207  0.000  0.000  0.000  0.000  0.000  0.000  0.000    3.39  42.52   0.47      0   1561  322.5   0.85   0.60    0.0   1.01    0.57    0.57    0.45    0.25    0.15    0.08    0.04    0.01    0.00    0.00      483     131
 2011 154    63    48   10.3      5  2.457    759    941    821    209   1700   3433    449   183.1  0.239   1733    212  0.000  0.000  0.000  0.000  0.000  0.000  0.000    3.29  47.39   0.50      0   1733  323.8   0.85   0.60    0.0   1.01    0.56    0.56    0.44    0.24    0.15    0.08    0.04    0.01    0.00    0.00      508     136
 2011 155    64    49   10.3      7  2.376    731    924    999    204   1655   3545    491   203.5  0.282   1890    212  0.000  0.000  0.000  0.000  0.000  0.000  0.000    3.19  52.87   0.53      0   1890  325.2   0.85   0.60    0.0   1.01    0.55    0.55    0.43    0.24    0.15    0.08    0.04    0.01    0.00    0.00      540     140
 2011 156    65    50   10.3      7  1.753    536    859   1185    200   1395   3443    518   228.7  0.344   2048    205  0.000  0.000  0.000  0.000  0.000  0.000  0.000    3.00  57.87   0.59      0   2048  326.8   0.85   0.60    0.0   1.02    0.54    0.54    0.42    0.23    0.14    0.07    0.04    0.01    0.00    0.00      799     144
 2011 157    66    51   10.3      7  1.295    396    814   1337    195   1209   3387    529   252.8  0.395   2178    194  0.000  0.000  0.000  0.000  0.000  0.000  0.000    2.80  61.39   0.64      0   2178  327.2   0.85   0.60    0.0   1.02    0.53    0.53    0.41    0.23    0.14    0.07    0.04    0.01    0.00    0.00      987     149
 2011 158    67    52   10.3      7  0.958    292    777   1459    190   1069   3361    529   275.9  0.434   2292    179  0.000  0.000  0.000  0.000  0.000  0.000  0.000    2.63  63.65   0.68      0   2292  328.4   0.85   0.60    0.0   1.02    0.52    0.52    0.40    0.22    0.14    0.07    0.04    0.01    0.00    0.00     1115     153
 2011 159    68    53   10.3      7  0.710    216    750   1553    186    966   3345    529   293.7  0.464   2379    168  0.000  0.000  0.000  0.000  0.000  0.000  0.000    2.48  65.27   0.71      0   2379  329.3   0.85   0.60    0.0   1.02    0.51    0.51    0.39    0.22    0.13    0.07    0.04    0.01    0.00    0.00     1210     157
 2011 160    69    54   10.3      7  0.527    160    729   1623    182    889   3332    529   306.9  0.487   2443    159  0.000  0.000  0.000  0.000  0.000  0.000  0.000    2.34  66.44   0.73      0   2443  330.1   0.85   0.60    0.0   1.02    0.49    0.49    0.38    0.21    0.13    0.07    0.04    0.01    0.00    0.00     1280     161
 2011 161    70    55   10.3      7  0.391    118    714   1673    177    833   3320    529   316.3  0.504   2487    151  0.000  0.000  0.000  0.000  0.000  0.000  0.000    2.20  67.27   0.75      0   2487  330.6   0.85   0.60    0.0   1.02    0.48    0.48    0.38    0.21    0.13    0.07    0.04    0.01    0.00    0.00     1332     165
 2011 162    71    56   10.3      7  0.291     88    701   1710    173    789   3307    529   323.3  0.517   2518    151  0.000  0.000  0.000  0.000  0.000  0.000  0.000    2.09  67.90   0.76      0   2518  331.5   0.85   0.60    0.0   1.02    0.47    0.47    0.37    0.20    0.13    0.07    0.04    0.01    0.00    0.00     1371     169
 2011 163    72    57   10.3      7  0.217     65    690   1735    169    756   3294    529   328.1  0.527   2539    151  0.000  0.000  0.000  0.000  0.000  0.000  0.000    1.99  68.35   0.77      0   2539  332.6   0.85   0.60    0.0   1.02    0.46    0.46    0.36    0.20    0.12    0.06    0.03    0.01    0.00    0.00     1399     173
 2011 164    73    58   10.3      8  0.162     48    681   1751    166    730   3281    529   331.1  0.534   2551    151  0.000  0.000  0.000  0.000  0.000  0.000  0.000    1.94  68.64   0.78      0   2551  333.9   0.85   0.60    0.0   1.02    0.45    0.45    0.35    0.20    0.12    0.06    0.03    0.01    0.00    0.00     1420     176
