*SIMULATION OVERVIEW FILE

*DSSAT Cropping System Model Ver. 4.6.1.000 -release      JUL 11, 2017; 16:24:51
                                                                                
*RUN   1        : SIM                       CRGRO046 6\000006    1              
 MODEL          : CRGRO046 - Dry bean                                           
 EXPERIMENT     : 6\000006 BN PALMIRA_ANALISIS SENSIBILIDAD                     
 DATA PATH      : D:\B\0\00000                                                  
 TREATMENT  1   : SIM                       CRGRO046                            
                                                                                
                                                                                
 CROP           : Dry bean         CULTIVAR : Jatu Rong        ECOTYPE :ANDIND  
 STARTING DATE  : APR  1 1980                                                   
 PLANTING DATE  : AUTOMATIC PLANTING PLANTS/m2 : 26.6     ROW SPACING :  60.cm  
 WEATHER        : PALM   1980                                                   
 SOIL           : CCPA000030     TEXTURE : C     -   Silty Clay Loam            
 WATER BALANCE  : NOT SIMULATED ; NO H2O-STRESS                                 
 IRRIGATION     :                                                               
 NITROGEN BAL.  : NOT SIMULATED ; NO N-STRESS                                   
 N-FERTILIZER   :                                                               
 RESIDUE/MANURE :                                                               
 ENVIRONM. OPT. : DAYL=    0.00  SRAD=    0.00  TMAX=    0.00  TMIN=    0.00    
                  RAIN=    0.00  CO2 =    0.00  DEW =    0.00  WIND=    0.00    
 SIMULATION OPT : WATER   :N  NITROGEN:N  N-FIX:N  PHOSPH :N  PESTS  :N         
                  PHOTO   :L  ET      :R  INFIL:S  HYDROL :R  SOM    :G         
                  CO2 338ppm  NSWIT   :1  EVAP :S  SOIL   :2  STEMP  :D         
 MANAGEMENT OPT : PLANTING:A  IRRIG   :A  FERT :D  RESIDUE:N  HARVEST:M         
                  WEATHER :M  TILLAGE :N                                        
                                                                                
*SUMMARY OF SOIL AND GENETIC INPUT PARAMETERS                                   
                                                                                
 Dry bean   CULTIVAR :000006-Jatu Rong          ECOTYPE :ANDIND                 
 CSDVAR :12.17  PPSEN  : 0.05  EMG-FLW:23.00  FLW-FSD: 9.00  FSD-PHM : 11.00    
 WTPSD  :0.600  SDPDVR : 3.50  SDFDUR :15.00  PODDUR :10.00  XFRUIT  :  1.00    
 THRESH : 78.0  SDPRO  :0.235  SDLIP   : 0.030                                  


*SIMULATED CROP AND SOIL STATUS AT MAIN DEVELOPMENT STAGES

 RUN NO.     1     SIM                     

        CROP GROWTH     BIOMASS         LEAF   CROP N     STRESS      STRESS                                           
   DATE  AGE STAGE        kg/ha    LAI   NUM  kg/ha  %   H2O  Nitr Phos1 Phos2  RSTG                                   
 ------  --- ----------   -----  -----  ----  ---  ---  ----  ----  ----  ----  ----                                   
  1 APR    0 Start Sim        0   0.00   0.0    0  0.0  0.00  0.00  0.00  0.00     0
 15 APR    0 Sowing           0   0.00   0.0    0  0.0  0.00  0.00  0.00  0.00     0
 20 APR    5 Emergence       44   0.08   0.2    1  3.4  0.00  0.00  0.00  0.00     0
 20 APR    5 End Juven.      44   0.08   0.2    1  3.4  0.00  0.00  0.00  0.00     0
 23 APR    8 Unifoliate      49   0.09   1.1    2  3.3  0.00  0.64  0.00  0.00     0
 25 APR   10 Flower Ind      56   0.10   1.7    2  3.2  0.00  0.41  0.00  0.00     0
 14 MAY   29 First Flwr     807   2.15   7.4   25  3.1  0.00  0.01  0.00  0.00     1
 17 MAY   32 First Pod     1088   2.62   8.2   34  3.2  0.00  0.00  0.00  0.00     3
 24 MAY   39 First Seed    2016   3.24  10.4   61  3.0  0.00  0.00  0.00  0.00     5
 26 MAY   41 End Msnode    2307   3.25  11.0   69  3.0  0.00  0.00  0.00  0.00     5
 31 MAY   46 End Pod       2975   2.98  11.0   88  3.0  0.00  0.00  0.00  0.00     5
  3 JUN   49 End Leaf      3344   2.77  11.0   97  2.9  0.00  0.00  0.00  0.00     5
  6 JUN   52 Phys. Mat     3711   2.51  11.0  106  2.9  0.00  0.00  0.00  0.00     7
 15 JUN   61 Harv. Mat     3437   0.17  11.0   98  2.9  0.00  0.00  0.00  0.00     8
 15 JUN   61 Harvest       3437   0.17  11.0   98  2.9  0.00  0.00  0.00  0.00     8


*MAIN GROWTH AND DEVELOPMENT VARIABLES

@     VARIABLE                                         SIMULATED     MEASURED
      --------                                         ---------     --------
      Anthesis day (dap)                                      29          -99
      First pod day (dap)                                     32          -99
      First seed day (dap)                                    39          -99
      Physiological maturity day (dap)                        52          -99
      Yield at harvest maturity (kg [dm]/ha)                1921          -99
      Pod/Ear/Panicle weight at maturity (kg [dm]/ha)       2726          -99
      Number at maturity (no/m2)                             517          -99
      Unit wt at maturity (g [dm]/unit)                   0.3720          -99
      Number at maturity (no/unit)                          3.50          -99
      Tops weight at maturity (kg [dm]/ha)                  3437          -99
      By-product produced (stalk) at maturity (kg[dm]/ha    1520          -99
      Leaf area index, maximum                              3.25          -99
      Harvest index at maturity                            0.559          -99
      Threshing % at maturity                              70.48          -99
      Grain N at maturity (kg/ha)                             73          -99
      Tops N at maturity (kg/ha)                              98          -99
      Stem N at maturity (kg/ha)                               8          -99
      Grain N at maturity (%)                               3.77          -99
      Tops weight at anthesis (kg [dm]/ha)                   807          -99
      Tops N at anthesis (kg/ha)                              25          -99
      Leaf number per stem at maturity                     10.96          -99
      Grain oil at maturity (%)                             2.87          -99
      Canopy height (m)                                     0.93          -99
      Harvest maturity day (dap)                              61          -99
      Emergence day (dap)                                      5          -99


*ENVIRONMENTAL AND STRESS FACTORS

 |-----Development Phase------|--------------------------------------Environment--------------------------------------|-----------------Stress-----------------|
                              |---------------Average--------------|-----Cumulative-----|--------Count of days--------|          (0=Min, 1=Max Stress)         |
                         Time  Temp  Temp  Temp Solar Photop                Evapo    Pot TMIN TMIN TMAX TMAX TMAX RAIN|----Water----|---Nitrogen--|-Phosphorus-|
                         Span   Max   Min  Mean   Rad  [day]    CO2   Rain  Trans     ET   <    <    >    >    >    >   Photo         Photo         Photo
                         days    øC    øC    øC MJ/m2     hr    ppm     mm     mm     mm  0øC  2øC 30øC 32øC 34øC  0mm  synth Growth  synth Growth  synth Growth
----------------------------------------------------------------------------------------------------------------------------------------------------------------
 Emergence -First Flower   24  29.8  19.5  24.6  18.6  12.13  338.3   54.2    0.0    0.0    0    0   12    2    0   12  0.000  0.000  0.000  0.123  0.000  0.000
 First Flower-First Seed   10  29.9  19.5  24.7  18.3  12.17  338.5    3.2    0.0    0.0    0    0    5    0    0    3  0.000  0.000  0.000  0.000  0.000  0.000
 First Seed - Phys. Mat.   13  28.9  19.1  24.0  17.6  12.19  338.5   40.5    0.0    0.0    0    0    4    0    0    7  0.000  0.000  0.000  0.000  0.000  0.000
 Emergence  - Phys. Mat.   47  29.6  19.4  24.5  18.3  12.16  338.4   97.9    0.0    0.0    0    0   21    2    0   22  0.000  0.000  0.000  0.063  0.000  0.000


 Planting to Harvest       75  29.6  19.3  24.5  18.5  12.14  338.4  209.4    0.0    0.0    0    0   37    2    0   29  0.000  0.000  0.000  0.039  0.000  0.000
----------------------------------------------------------------------------------------------------------------------------------------------------------------

--------------------------------------------------------------------------------------------------------------

                  Dry bean YIELD :     1921 kg/ha    [Dry weight] 

**************************************************************************************************************

*DSSAT Cropping System Model Ver. 4.6.1.000 -release      JUL 11, 2017; 16:24:51
                                                                                
*RUN   2        : SIM                       CRGRO046 6\000006    1              
 MODEL          : CRGRO046 - Dry bean                                           
 EXPERIMENT     : 6\000006 BN PALMIRA_ANALISIS SENSIBILIDAD                     
 DATA PATH      : D:\B\0\00000                                                  
 TREATMENT  1   : SIM                       CRGRO046                            
                                                                                
                                                                                
 CROP           : Dry bean         CULTIVAR : Jatu Rong        ECOTYPE :ANDIND  
 STARTING DATE  : APR  2 1981                                                   
 PLANTING DATE  : APR 16 1981        PLANTS/m2 : 26.6     ROW SPACING :  60.cm  
 WEATHER        : PALM8034                                                      
 SOIL           : CCPA000030     TEXTURE : C     -   Silty Clay Loam            
 WATER BALANCE  : NOT SIMULATED ; NO H2O-STRESS                                 
 IRRIGATION     :                                                               
 NITROGEN BAL.  : NOT SIMULATED ; NO N-STRESS                                   
 N-FERTILIZER   :                                                               
 RESIDUE/MANURE :                                                               
 ENVIRONM. OPT. : DAYL=    0.00  SRAD=    0.00  TMAX=    0.00  TMIN=    0.00    
                  RAIN=    0.00  CO2 =    0.00  DEW =    0.00  WIND=    0.00    
 SIMULATION OPT : WATER   :N  NITROGEN:N  N-FIX:N  PHOSPH :N  PESTS  :N         
                  PHOTO   :L  ET      :R  INFIL:S  HYDROL :R  SOM    :G         
                  CO2 340ppm  NSWIT   :1  EVAP :S  SOIL   :2  STEMP  :D         
 MANAGEMENT OPT : PLANTING:A  IRRIG   :A  FERT :D  RESIDUE:N  HARVEST:M         
                  WEATHER :M  TILLAGE :N                                        
                                                                                
*SUMMARY OF SOIL AND GENETIC INPUT PARAMETERS                                   
                                                                                
 Dry bean   CULTIVAR :000006-Jatu Rong          ECOTYPE :ANDIND                 
 CSDVAR :12.17  PPSEN  : 0.05  EMG-FLW:23.00  FLW-FSD: 9.00  FSD-PHM : 11.00    
 WTPSD  :0.600  SDPDVR : 3.50  SDFDUR :15.00  PODDUR :10.00  XFRUIT  :  1.00    
 THRESH : 78.0  SDPRO  :0.235  SDLIP   : 0.030                                  


*SIMULATED CROP AND SOIL STATUS AT MAIN DEVELOPMENT STAGES

 RUN NO.     2     SIM                     

        CROP GROWTH     BIOMASS         LEAF   CROP N     STRESS      STRESS                                           
   DATE  AGE STAGE        kg/ha    LAI   NUM  kg/ha  %   H2O  Nitr Phos1 Phos2  RSTG                                   
 ------  --- ----------   -----  -----  ----  ---  ---  ----  ----  ----  ----  ----                                   
  2 APR    0 Start Sim        0   0.00   0.0    0  0.0  0.00  0.00  0.00  0.00     0
 16 APR    0 Sowing           0   0.00   0.0    0  0.0  0.00  0.00  0.00  0.00     0
 21 APR    5 Emergence       44   0.08   0.2    1  3.4  0.00  0.00  0.00  0.00     0
 21 APR    5 End Juven.      44   0.08   0.2    1  3.4  0.00  0.00  0.00  0.00     0
 24 APR    8 Unifoliate      48   0.09   1.1    2  3.3  0.00  0.66  0.00  0.00     0
 26 APR   10 Flower Ind      54   0.10   1.7    2  3.2  0.00  0.47  0.00  0.00     0
 16 MAY   30 First Flwr     823   2.18   7.3   26  3.1  0.00  0.01  0.00  0.00     1
 19 MAY   33 First Pod     1109   2.63   8.2   35  3.2  0.00  0.00  0.00  0.00     3
 26 MAY   40 First Seed    2030   3.22  10.3   61  3.0  0.00  0.00  0.00  0.00     5
 28 MAY   42 End Msnode    2318   3.24  10.9   69  3.0  0.00  0.00  0.00  0.00     5
  2 JUN   47 End Pod       2984   2.99  10.9   87  2.9  0.00  0.00  0.00  0.00     5
  5 JUN   50 End Leaf      3375   2.75  10.9   97  2.9  0.00  0.00  0.00  0.00     5
  7 JUN   52 Phys. Mat     3607   2.58  10.9  102  2.8  0.00  0.00  0.00  0.00     7
 16 JUN   61 Harv. Mat     3288   0.18  10.9   91  2.8  0.00  0.00  0.00  0.00     8
 16 JUN   61 Harvest       3288   0.18  10.9   91  2.8  0.00  0.00  0.00  0.00     8


*MAIN GROWTH AND DEVELOPMENT VARIABLES

@     VARIABLE                                         SIMULATED     MEASURED
      --------                                         ---------     --------
      Anthesis day (dap)                                      30          -99
      First pod day (dap)                                     33          -99
      First seed day (dap)                                    40          -99
      Physiological maturity day (dap)                        52          -99
      Yield at harvest maturity (kg [dm]/ha)                1666          -99
      Pod/Ear/Panicle weight at maturity (kg [dm]/ha)       2553          -99
      Number at maturity (no/m2)                             564          -99
      Unit wt at maturity (g [dm]/unit)                   0.2955          -99
      Number at maturity (no/unit)                          3.50          -99
      Tops weight at maturity (kg [dm]/ha)                  3288          -99
      By-product produced (stalk) at maturity (kg[dm]/ha    1620          -99
      Leaf area index, maximum                              3.24          -99
      Harvest index at maturity                            0.507          -99
      Threshing % at maturity                              65.27          -99
      Grain N at maturity (kg/ha)                             63          -99
      Tops N at maturity (kg/ha)                              91          -99
      Stem N at maturity (kg/ha)                               8          -99
      Grain N at maturity (%)                               3.76          -99
      Tops weight at anthesis (kg [dm]/ha)                   823          -99
      Tops N at anthesis (kg/ha)                              26          -99
      Leaf number per stem at maturity                     10.86          -99
      Grain oil at maturity (%)                             2.89          -99
      Canopy height (m)                                     0.91          -99
      Harvest maturity day (dap)                              61          -99
      Emergence day (dap)                                      5          -99


*ENVIRONMENTAL AND STRESS FACTORS

 |-----Development Phase------|--------------------------------------Environment--------------------------------------|-----------------Stress-----------------|
                              |---------------Average--------------|-----Cumulative-----|--------Count of days--------|          (0=Min, 1=Max Stress)         |
                         Time  Temp  Temp  Temp Solar Photop                Evapo    Pot TMIN TMIN TMAX TMAX TMAX RAIN|----Water----|---Nitrogen--|-Phosphorus-|
                         Span   Max   Min  Mean   Rad  [day]    CO2   Rain  Trans     ET   <    <    >    >    >    >   Photo         Photo         Photo
                         days    øC    øC    øC MJ/m2     hr    ppm     mm     mm     mm  0øC  2øC 30øC 32øC 34øC  0mm  synth Growth  synth Growth  synth Growth
----------------------------------------------------------------------------------------------------------------------------------------------------------------
 Emergence -First Flower   25  28.1  19.0  23.5  17.5  12.13  339.7  112.6    0.0    0.0    0    0    1    0    0   18  0.000  0.000  0.000  0.128  0.000  0.000
 First Flower-First Seed   10  29.1  19.1  24.1  18.0  12.17  339.8   76.8    0.0    0.0    0    0    4    0    0    6  0.000  0.000  0.000  0.000  0.000  0.000
 First Seed - Phys. Mat.   12  28.8  19.4  24.1  17.2  12.19  339.8   23.3    0.0    0.0    0    0    3    0    0    5  0.000  0.000  0.000  0.000  0.000  0.000
 Emergence  - Phys. Mat.   47  28.5  19.1  23.8  17.5  12.16  339.8  212.7    0.0    0.0    0    0    8    0    0   29  0.000  0.000  0.000  0.068  0.000  0.000


 Planting to Harvest       75  28.5  19.2  23.9  17.6  12.14  339.8  399.9    0.0    0.0    0    0   14    0    0   45  0.000  0.000  0.000  0.043  0.000  0.000
----------------------------------------------------------------------------------------------------------------------------------------------------------------

--------------------------------------------------------------------------------------------------------------

                  Dry bean YIELD :     1666 kg/ha    [Dry weight] 

**************************************************************************************************************

*DSSAT Cropping System Model Ver. 4.6.1.000 -release      JUL 11, 2017; 16:24:51
                                                                                
*RUN   3        : SIM                       CRGRO046 6\000006    1              
 MODEL          : CRGRO046 - Dry bean                                           
 EXPERIMENT     : 6\000006 BN PALMIRA_ANALISIS SENSIBILIDAD                     
 DATA PATH      : D:\B\0\00000                                                  
 TREATMENT  1   : SIM                       CRGRO046                            
                                                                                
                                                                                
 CROP           : Dry bean         CULTIVAR : Jatu Rong        ECOTYPE :ANDIND  
 STARTING DATE  : APR  2 1982                                                   
 PLANTING DATE  : APR 16 1982        PLANTS/m2 : 26.6     ROW SPACING :  60.cm  
 WEATHER        : PALM8034                                                      
 SOIL           : CCPA000030     TEXTURE : C     -   Silty Clay Loam            
 WATER BALANCE  : NOT SIMULATED ; NO H2O-STRESS                                 
 IRRIGATION     :                                                               
 NITROGEN BAL.  : NOT SIMULATED ; NO N-STRESS                                   
 N-FERTILIZER   :                                                               
 RESIDUE/MANURE :                                                               
 ENVIRONM. OPT. : DAYL=    0.00  SRAD=    0.00  TMAX=    0.00  TMIN=    0.00    
                  RAIN=    0.00  CO2 =    0.00  DEW =    0.00  WIND=    0.00    
 SIMULATION OPT : WATER   :N  NITROGEN:N  N-FIX:N  PHOSPH :N  PESTS  :N         
                  PHOTO   :L  ET      :R  INFIL:S  HYDROL :R  SOM    :G         
                  CO2 341ppm  NSWIT   :1  EVAP :S  SOIL   :2  STEMP  :D         
 MANAGEMENT OPT : PLANTING:A  IRRIG   :A  FERT :D  RESIDUE:N  HARVEST:M         
                  WEATHER :M  TILLAGE :N                                        
                                                                                
*SUMMARY OF SOIL AND GENETIC INPUT PARAMETERS                                   
                                                                                
 Dry bean   CULTIVAR :000006-Jatu Rong          ECOTYPE :ANDIND                 
 CSDVAR :12.17  PPSEN  : 0.05  EMG-FLW:23.00  FLW-FSD: 9.00  FSD-PHM : 11.00    
 WTPSD  :0.600  SDPDVR : 3.50  SDFDUR :15.00  PODDUR :10.00  XFRUIT  :  1.00    
 THRESH : 78.0  SDPRO  :0.235  SDLIP   : 0.030                                  


*SIMULATED CROP AND SOIL STATUS AT MAIN DEVELOPMENT STAGES

 RUN NO.     3     SIM                     

        CROP GROWTH     BIOMASS         LEAF   CROP N     STRESS      STRESS                                           
   DATE  AGE STAGE        kg/ha    LAI   NUM  kg/ha  %   H2O  Nitr Phos1 Phos2  RSTG                                   
 ------  --- ----------   -----  -----  ----  ---  ---  ----  ----  ----  ----  ----                                   
  2 APR    0 Start Sim        0   0.00   0.0    0  0.0  0.00  0.00  0.00  0.00     0
 16 APR    0 Sowing           0   0.00   0.0    0  0.0  0.00  0.00  0.00  0.00     0
 21 APR    5 Emergence       44   0.08   0.2    1  3.4  0.00  0.00  0.00  0.00     0
 21 APR    5 End Juven.      44   0.08   0.2    1  3.4  0.00  0.00  0.00  0.00     0
 24 APR    8 Unifoliate      49   0.09   1.1    2  3.3  0.00  0.65  0.00  0.00     0
 26 APR   10 Flower Ind      55   0.10   1.7    2  3.2  0.00  0.44  0.00  0.00     0
 15 MAY   29 First Flwr     790   2.09   7.3   25  3.1  0.00  0.01  0.00  0.00     1
 18 MAY   32 First Pod     1067   2.56   8.2   34  3.2  0.00  0.00  0.00  0.00     3
 25 MAY   39 First Seed    1931   3.19  10.2   58  3.0  0.00  0.00  0.00  0.00     5
 28 MAY   42 End Msnode    2347   3.20  11.0   70  3.0  0.00  0.00  0.00  0.00     5
  1 JUN   46 End Pod       2884   2.99  11.0   85  2.9  0.00  0.00  0.00  0.00     5
  4 JUN   49 End Leaf      3255   2.76  11.0   94  2.9  0.00  0.00  0.00  0.00     5
  7 JUN   52 Phys. Mat     3616   2.51  11.0  103  2.9  0.00  0.00  0.00  0.00     7
 16 JUN   61 Harv. Mat     3359   0.17  11.0   96  2.9  0.00  0.00  0.00  0.00     8
 16 JUN   61 Harvest       3359   0.17  11.0   96  2.9  0.00  0.00  0.00  0.00     8


*MAIN GROWTH AND DEVELOPMENT VARIABLES

@     VARIABLE                                         SIMULATED     MEASURED
      --------                                         ---------     --------
      Anthesis day (dap)                                      29          -99
      First pod day (dap)                                     32          -99
      First seed day (dap)                                    39          -99
      Physiological maturity day (dap)                        52          -99
      Yield at harvest maturity (kg [dm]/ha)                1874          -99
      Pod/Ear/Panicle weight at maturity (kg [dm]/ha)       2673          -99
      Number at maturity (no/m2)                             530          -99
      Unit wt at maturity (g [dm]/unit)                   0.3536          -99
      Number at maturity (no/unit)                          3.50          -99
      Tops weight at maturity (kg [dm]/ha)                  3359          -99
      By-product produced (stalk) at maturity (kg[dm]/ha    1480          -99
      Leaf area index, maximum                              3.21          -99
      Harvest index at maturity                            0.558          -99
      Threshing % at maturity                              70.13          -99
      Grain N at maturity (kg/ha)                             71          -99
      Tops N at maturity (kg/ha)                              96          -99
      Stem N at maturity (kg/ha)                               7          -99
      Grain N at maturity (%)                               3.81          -99
      Tops weight at anthesis (kg [dm]/ha)                   790          -99
      Tops N at anthesis (kg/ha)                              25          -99
      Leaf number per stem at maturity                     11.04          -99
      Grain oil at maturity (%)                             2.85          -99
      Canopy height (m)                                     0.94          -99
      Harvest maturity day (dap)                              61          -99
      Emergence day (dap)                                      5          -99


*ENVIRONMENTAL AND STRESS FACTORS

 |-----Development Phase------|--------------------------------------Environment--------------------------------------|-----------------Stress-----------------|
                              |---------------Average--------------|-----Cumulative-----|--------Count of days--------|          (0=Min, 1=Max Stress)         |
                         Time  Temp  Temp  Temp Solar Photop                Evapo    Pot TMIN TMIN TMAX TMAX TMAX RAIN|----Water----|---Nitrogen--|-Phosphorus-|
                         Span   Max   Min  Mean   Rad  [day]    CO2   Rain  Trans     ET   <    <    >    >    >    >   Photo         Photo         Photo
                         days    øC    øC    øC MJ/m2     hr    ppm     mm     mm     mm  0øC  2øC 30øC 32øC 34øC  0mm  synth Growth  synth Growth  synth Growth
----------------------------------------------------------------------------------------------------------------------------------------------------------------
 Emergence -First Flower   24  29.4  19.4  24.4  18.4  12.13  340.9   57.5    0.0    0.0    0    0    9    1    0    8  0.000  0.000  0.000  0.125  0.000  0.000
 First Flower-First Seed   10  28.0  18.9  23.5  17.1  12.17  341.0   62.4    0.0    0.0    0    0    2    1    0    6  0.000  0.000  0.000  0.000  0.000  0.000
 First Seed - Phys. Mat.   13  29.0  19.7  24.3  17.1  12.19  341.0    7.2    0.0    0.0    0    0    3    0    0    3  0.000  0.000  0.000  0.000  0.000  0.000
 Emergence  - Phys. Mat.   47  29.0  19.4  24.2  17.8  12.16  340.9  127.1    0.0    0.0    0    0   14    2    0   17  0.000  0.000  0.000  0.064  0.000  0.000


 Planting to Harvest       75  29.0  19.3  24.2  18.0  12.14  340.9  260.9    0.0    0.0    0    0   22    2    0   29  0.000  0.000  0.000  0.040  0.000  0.000
----------------------------------------------------------------------------------------------------------------------------------------------------------------

--------------------------------------------------------------------------------------------------------------

                  Dry bean YIELD :     1874 kg/ha    [Dry weight] 

**************************************************************************************************************

*DSSAT Cropping System Model Ver. 4.6.1.000 -release      JUL 11, 2017; 16:24:51
                                                                                
*RUN   4        : SIM                       CRGRO046 6\000006    1              
 MODEL          : CRGRO046 - Dry bean                                           
 EXPERIMENT     : 6\000006 BN PALMIRA_ANALISIS SENSIBILIDAD                     
 DATA PATH      : D:\B\0\00000                                                  
 TREATMENT  1   : SIM                       CRGRO046                            
                                                                                
                                                                                
 CROP           : Dry bean         CULTIVAR : Jatu Rong        ECOTYPE :ANDIND  
 STARTING DATE  : APR  2 1983                                                   
 PLANTING DATE  : APR 16 1983        PLANTS/m2 : 26.6     ROW SPACING :  60.cm  
 WEATHER        : PALM8034                                                      
 SOIL           : CCPA000030     TEXTURE : C     -   Silty Clay Loam            
 WATER BALANCE  : NOT SIMULATED ; NO H2O-STRESS                                 
 IRRIGATION     :                                                               
 NITROGEN BAL.  : NOT SIMULATED ; NO N-STRESS                                   
 N-FERTILIZER   :                                                               
 RESIDUE/MANURE :                                                               
 ENVIRONM. OPT. : DAYL=    0.00  SRAD=    0.00  TMAX=    0.00  TMIN=    0.00    
                  RAIN=    0.00  CO2 =    0.00  DEW =    0.00  WIND=    0.00    
 SIMULATION OPT : WATER   :N  NITROGEN:N  N-FIX:N  PHOSPH :N  PESTS  :N         
                  PHOTO   :L  ET      :R  INFIL:S  HYDROL :R  SOM    :G         
                  CO2 342ppm  NSWIT   :1  EVAP :S  SOIL   :2  STEMP  :D         
 MANAGEMENT OPT : PLANTING:A  IRRIG   :A  FERT :D  RESIDUE:N  HARVEST:M         
                  WEATHER :M  TILLAGE :N                                        
                                                                                
*SUMMARY OF SOIL AND GENETIC INPUT PARAMETERS                                   
                                                                                
 Dry bean   CULTIVAR :000006-Jatu Rong          ECOTYPE :ANDIND                 
 CSDVAR :12.17  PPSEN  : 0.05  EMG-FLW:23.00  FLW-FSD: 9.00  FSD-PHM : 11.00    
 WTPSD  :0.600  SDPDVR : 3.50  SDFDUR :15.00  PODDUR :10.00  XFRUIT  :  1.00    
 THRESH : 78.0  SDPRO  :0.235  SDLIP   : 0.030                                  


*SIMULATED CROP AND SOIL STATUS AT MAIN DEVELOPMENT STAGES

 RUN NO.     4     SIM                     

        CROP GROWTH     BIOMASS         LEAF   CROP N     STRESS      STRESS                                           
   DATE  AGE STAGE        kg/ha    LAI   NUM  kg/ha  %   H2O  Nitr Phos1 Phos2  RSTG                                   
 ------  --- ----------   -----  -----  ----  ---  ---  ----  ----  ----  ----  ----                                   
  2 APR    0 Start Sim        0   0.00   0.0    0  0.0  0.00  0.00  0.00  0.00     0
 16 APR    0 Sowing           0   0.00   0.0    0  0.0  0.00  0.00  0.00  0.00     0
 21 APR    5 Emergence       44   0.08   0.2    1  3.4  0.00  0.00  0.00  0.00     0
 21 APR    5 End Juven.      44   0.08   0.2    1  3.4  0.00  0.00  0.00  0.00     0
 24 APR    8 Unifoliate      48   0.09   1.1    2  3.3  0.00  0.66  0.00  0.00     0
 26 APR   10 Flower Ind      55   0.10   1.7    2  3.2  0.00  0.43  0.00  0.00     0
 15 MAY   29 First Flwr     819   2.15   7.4   26  3.1  0.00  0.01  0.00  0.00     1
 18 MAY   32 First Pod     1106   2.62   8.3   35  3.2  0.00  0.00  0.00  0.00     3
 25 MAY   39 First Seed    2045   3.23  10.4   61  3.0  0.00  0.00  0.00  0.00     5
 27 MAY   41 End Msnode    2333   3.24  11.0   69  3.0  0.00  0.00  0.00  0.00     5
  1 JUN   46 End Pod       3014   2.98  11.0   88  2.9  0.00  0.00  0.00  0.00     5
  4 JUN   49 End Leaf      3384   2.74  11.0   97  2.9  0.00  0.00  0.00  0.00     5
  6 JUN   51 Phys. Mat     3638   2.57  11.0  103  2.8  0.00  0.00  0.00  0.00     7
 15 JUN   60 Harv. Mat     3329   0.18  11.0   93  2.8  0.00  0.00  0.00  0.00     8
 15 JUN   60 Harvest       3329   0.18  11.0   93  2.8  0.00  0.00  0.00  0.00     8


*MAIN GROWTH AND DEVELOPMENT VARIABLES

@     VARIABLE                                         SIMULATED     MEASURED
      --------                                         ---------     --------
      Anthesis day (dap)                                      29          -99
      First pod day (dap)                                     32          -99
      First seed day (dap)                                    39          -99
      Physiological maturity day (dap)                        51          -99
      Yield at harvest maturity (kg [dm]/ha)                1787          -99
      Pod/Ear/Panicle weight at maturity (kg [dm]/ha)       2588          -99
      Number at maturity (no/m2)                             529          -99
      Unit wt at maturity (g [dm]/unit)                   0.3379          -99
      Number at maturity (no/unit)                          3.50          -99
      Tops weight at maturity (kg [dm]/ha)                  3329          -99
      By-product produced (stalk) at maturity (kg[dm]/ha    1540          -99
      Leaf area index, maximum                              3.24          -99
      Harvest index at maturity                            0.537          -99
      Threshing % at maturity                              69.04          -99
      Grain N at maturity (kg/ha)                             67          -99
      Tops N at maturity (kg/ha)                              93          -99
      Stem N at maturity (kg/ha)                               8          -99
      Grain N at maturity (%)                               3.76          -99
      Tops weight at anthesis (kg [dm]/ha)                   819          -99
      Tops N at anthesis (kg/ha)                              26          -99
      Leaf number per stem at maturity                     11.01          -99
      Grain oil at maturity (%)                             2.90          -99
      Canopy height (m)                                     0.94          -99
      Harvest maturity day (dap)                              60          -99
      Emergence day (dap)                                      5          -99


*ENVIRONMENTAL AND STRESS FACTORS

 |-----Development Phase------|--------------------------------------Environment--------------------------------------|-----------------Stress-----------------|
                              |---------------Average--------------|-----Cumulative-----|--------Count of days--------|          (0=Min, 1=Max Stress)         |
                         Time  Temp  Temp  Temp Solar Photop                Evapo    Pot TMIN TMIN TMAX TMAX TMAX RAIN|----Water----|---Nitrogen--|-Phosphorus-|
                         Span   Max   Min  Mean   Rad  [day]    CO2   Rain  Trans     ET   <    <    >    >    >    >   Photo         Photo         Photo
                         days    øC    øC    øC MJ/m2     hr    ppm     mm     mm     mm  0øC  2øC 30øC 32øC 34øC  0mm  synth Growth  synth Growth  synth Growth
----------------------------------------------------------------------------------------------------------------------------------------------------------------
 Emergence -First Flower   24  29.8  19.9  24.8  18.4  12.13  342.3   40.4    0.0    0.0    0    0   12    0    0    8  0.000  0.000  0.000  0.127  0.000  0.000
 First Flower-First Seed   10  29.4  19.2  24.3  18.2  12.17  342.5   65.2    0.0    0.0    0    0    3    0    0    6  0.000  0.000  0.000  0.000  0.000  0.000
 First Seed - Phys. Mat.   12  29.3  19.5  24.4  17.6  12.19  342.5    8.3    0.0    0.0    0    0    4    0    0    3  0.000  0.000  0.000  0.000  0.000  0.000
 Emergence  - Phys. Mat.   46  29.6  19.6  24.6  18.1  12.15  342.4  113.9    0.0    0.0    0    0   19    0    0   17  0.000  0.000  0.000  0.066  0.000  0.000


 Planting to Harvest       74  29.5  19.6  24.5  18.2  12.14  342.4  227.3    0.0    0.0    0    0   28    0    0   35  0.000  0.000  0.000  0.041  0.000  0.000
----------------------------------------------------------------------------------------------------------------------------------------------------------------

--------------------------------------------------------------------------------------------------------------

                  Dry bean YIELD :     1787 kg/ha    [Dry weight] 

**************************************************************************************************************

*DSSAT Cropping System Model Ver. 4.6.1.000 -release      JUL 11, 2017; 16:24:51
                                                                                
*RUN   5        : SIM                       CRGRO046 6\000006    1              
 MODEL          : CRGRO046 - Dry bean                                           
 EXPERIMENT     : 6\000006 BN PALMIRA_ANALISIS SENSIBILIDAD                     
 DATA PATH      : D:\B\0\00000                                                  
 TREATMENT  1   : SIM                       CRGRO046                            
                                                                                
                                                                                
 CROP           : Dry bean         CULTIVAR : Jatu Rong        ECOTYPE :ANDIND  
 STARTING DATE  : APR  1 1984                                                   
 PLANTING DATE  : APR 15 1984        PLANTS/m2 : 26.6     ROW SPACING :  60.cm  
 WEATHER        : PALM8034                                                      
 SOIL           : CCPA000030     TEXTURE : C     -   Silty Clay Loam            
 WATER BALANCE  : NOT SIMULATED ; NO H2O-STRESS                                 
 IRRIGATION     :                                                               
 NITROGEN BAL.  : NOT SIMULATED ; NO N-STRESS                                   
 N-FERTILIZER   :                                                               
 RESIDUE/MANURE :                                                               
 ENVIRONM. OPT. : DAYL=    0.00  SRAD=    0.00  TMAX=    0.00  TMIN=    0.00    
                  RAIN=    0.00  CO2 =    0.00  DEW =    0.00  WIND=    0.00    
 SIMULATION OPT : WATER   :N  NITROGEN:N  N-FIX:N  PHOSPH :N  PESTS  :N         
                  PHOTO   :L  ET      :R  INFIL:S  HYDROL :R  SOM    :G         
                  CO2 344ppm  NSWIT   :1  EVAP :S  SOIL   :2  STEMP  :D         
 MANAGEMENT OPT : PLANTING:A  IRRIG   :A  FERT :D  RESIDUE:N  HARVEST:M         
                  WEATHER :M  TILLAGE :N                                        
                                                                                
*SUMMARY OF SOIL AND GENETIC INPUT PARAMETERS                                   
                                                                                
 Dry bean   CULTIVAR :000006-Jatu Rong          ECOTYPE :ANDIND                 
 CSDVAR :12.17  PPSEN  : 0.05  EMG-FLW:23.00  FLW-FSD: 9.00  FSD-PHM : 11.00    
 WTPSD  :0.600  SDPDVR : 3.50  SDFDUR :15.00  PODDUR :10.00  XFRUIT  :  1.00    
 THRESH : 78.0  SDPRO  :0.235  SDLIP   : 0.030                                  


*SIMULATED CROP AND SOIL STATUS AT MAIN DEVELOPMENT STAGES

 RUN NO.     5     SIM                     

        CROP GROWTH     BIOMASS         LEAF   CROP N     STRESS      STRESS                                           
   DATE  AGE STAGE        kg/ha    LAI   NUM  kg/ha  %   H2O  Nitr Phos1 Phos2  RSTG                                   
 ------  --- ----------   -----  -----  ----  ---  ---  ----  ----  ----  ----  ----                                   
  1 APR    0 Start Sim        0   0.00   0.0    0  0.0  0.00  0.00  0.00  0.00     0
 15 APR    0 Sowing           0   0.00   0.0    0  0.0  0.00  0.00  0.00  0.00     0
 20 APR    5 Emergence       44   0.08   0.2    1  3.4  0.00  0.00  0.00  0.00     0
 20 APR    5 End Juven.      44   0.08   0.2    1  3.4  0.00  0.00  0.00  0.00     0
 23 APR    8 Unifoliate      49   0.09   1.1    2  3.3  0.00  0.64  0.00  0.00     0
 25 APR   10 Flower Ind      55   0.10   1.7    2  3.2  0.00  0.45  0.00  0.00     0
 15 MAY   30 First Flwr     869   2.23   7.4   27  3.1  0.00  0.01  0.00  0.00     1
 18 MAY   33 First Pod     1168   2.68   8.3   37  3.2  0.00  0.00  0.00  0.00     3
 25 MAY   40 First Seed    2074   3.28  10.3   62  3.0  0.00  0.00  0.00  0.00     5
 27 MAY   42 End Msnode    2361   3.30  10.8   70  3.0  0.00  0.00  0.00  0.00     5
  1 JUN   47 End Pod       3061   3.07  10.8   89  2.9  0.00  0.00  0.00  0.00     5
  4 JUN   50 End Leaf      3450   2.83  10.8   99  2.9  0.00  0.00  0.00  0.00     5
  7 JUN   53 Phys. Mat     3814   2.58  10.8  107  2.8  0.00  0.00  0.00  0.00     7
 16 JUN   62 Harv. Mat     3527   0.18  10.8   99  2.8  0.00  0.00  0.00  0.00     8
 16 JUN   62 Harvest       3527   0.18  10.8   99  2.8  0.00  0.00  0.00  0.00     8


*MAIN GROWTH AND DEVELOPMENT VARIABLES

@     VARIABLE                                         SIMULATED     MEASURED
      --------                                         ---------     --------
      Anthesis day (dap)                                      30          -99
      First pod day (dap)                                     33          -99
      First seed day (dap)                                    40          -99
      Physiological maturity day (dap)                        53          -99
      Yield at harvest maturity (kg [dm]/ha)                1894          -99
      Pod/Ear/Panicle weight at maturity (kg [dm]/ha)       2766          -99
      Number at maturity (no/m2)                             545          -99
      Unit wt at maturity (g [dm]/unit)                   0.3476          -99
      Number at maturity (no/unit)                          3.50          -99
      Tops weight at maturity (kg [dm]/ha)                  3527          -99
      By-product produced (stalk) at maturity (kg[dm]/ha    1630          -99
      Leaf area index, maximum                              3.30          -99
      Harvest index at maturity                            0.537          -99
      Threshing % at maturity                              68.47          -99
      Grain N at maturity (kg/ha)                             71          -99
      Tops N at maturity (kg/ha)                              99          -99
      Stem N at maturity (kg/ha)                               9          -99
      Grain N at maturity (%)                               3.74          -99
      Tops weight at anthesis (kg [dm]/ha)                   869          -99
      Tops N at anthesis (kg/ha)                              27          -99
      Leaf number per stem at maturity                     10.85          -99
      Grain oil at maturity (%)                             2.89          -99
      Canopy height (m)                                     0.94          -99
      Harvest maturity day (dap)                              62          -99
      Emergence day (dap)                                      5          -99


*ENVIRONMENTAL AND STRESS FACTORS

 |-----Development Phase------|--------------------------------------Environment--------------------------------------|-----------------Stress-----------------|
                              |---------------Average--------------|-----Cumulative-----|--------Count of days--------|          (0=Min, 1=Max Stress)         |
                         Time  Temp  Temp  Temp Solar Photop                Evapo    Pot TMIN TMIN TMAX TMAX TMAX RAIN|----Water----|---Nitrogen--|-Phosphorus-|
                         Span   Max   Min  Mean   Rad  [day]    CO2   Rain  Trans     ET   <    <    >    >    >    >   Photo         Photo         Photo
                         days    øC    øC    øC MJ/m2     hr    ppm     mm     mm     mm  0øC  2øC 30øC 32øC 34øC  0mm  synth Growth  synth Growth  synth Growth
----------------------------------------------------------------------------------------------------------------------------------------------------------------
 Emergence -First Flower   25  28.4  18.8  23.6  18.0  12.13  344.2   67.0    0.0    0.0    0    0    2    0    0   12  0.000  0.000  0.000  0.120  0.000  0.000
 First Flower-First Seed   10  28.0  18.9  23.4  17.1  12.17  344.3   38.4    0.0    0.0    0    0    1    0    0    8  0.000  0.000  0.000  0.000  0.000  0.000
 First Seed - Phys. Mat.   13  28.2  18.8  23.5  17.2  12.19  344.3   29.7    0.0    0.0    0    0    3    0    0    6  0.000  0.000  0.000  0.000  0.000  0.000
 Emergence  - Phys. Mat.   48  28.3  18.8  23.5  17.6  12.16  344.2  135.1    0.0    0.0    0    0    6    0    0   26  0.000  0.000  0.000  0.062  0.000  0.000


 Planting to Harvest       76  28.6  18.8  23.7  18.0  12.14  344.2  207.0    0.0    0.0    0    0   12    0    0   39  0.000  0.000  0.000  0.039  0.000  0.000
----------------------------------------------------------------------------------------------------------------------------------------------------------------

--------------------------------------------------------------------------------------------------------------

                  Dry bean YIELD :     1894 kg/ha    [Dry weight] 

**************************************************************************************************************

*DSSAT Cropping System Model Ver. 4.6.1.000 -release      JUL 11, 2017; 16:24:51
                                                                                
*RUN   6        : SIM                       CRGRO046 6\000006    1              
 MODEL          : CRGRO046 - Dry bean                                           
 EXPERIMENT     : 6\000006 BN PALMIRA_ANALISIS SENSIBILIDAD                     
 DATA PATH      : D:\B\0\00000                                                  
 TREATMENT  1   : SIM                       CRGRO046                            
                                                                                
                                                                                
 CROP           : Dry bean         CULTIVAR : Jatu Rong        ECOTYPE :ANDIND  
 STARTING DATE  : APR  2 1985                                                   
 PLANTING DATE  : APR 16 1985        PLANTS/m2 : 26.6     ROW SPACING :  60.cm  
 WEATHER        : PALM8034                                                      
 SOIL           : CCPA000030     TEXTURE : C     -   Silty Clay Loam            
 WATER BALANCE  : NOT SIMULATED ; NO H2O-STRESS                                 
 IRRIGATION     :                                                               
 NITROGEN BAL.  : NOT SIMULATED ; NO N-STRESS                                   
 N-FERTILIZER   :                                                               
 RESIDUE/MANURE :                                                               
 ENVIRONM. OPT. : DAYL=    0.00  SRAD=    0.00  TMAX=    0.00  TMIN=    0.00    
                  RAIN=    0.00  CO2 =    0.00  DEW =    0.00  WIND=    0.00    
 SIMULATION OPT : WATER   :N  NITROGEN:N  N-FIX:N  PHOSPH :N  PESTS  :N         
                  PHOTO   :L  ET      :R  INFIL:S  HYDROL :R  SOM    :G         
                  CO2 346ppm  NSWIT   :1  EVAP :S  SOIL   :2  STEMP  :D         
 MANAGEMENT OPT : PLANTING:A  IRRIG   :A  FERT :D  RESIDUE:N  HARVEST:M         
                  WEATHER :M  TILLAGE :N                                        
                                                                                
*SUMMARY OF SOIL AND GENETIC INPUT PARAMETERS                                   
                                                                                
 Dry bean   CULTIVAR :000006-Jatu Rong          ECOTYPE :ANDIND                 
 CSDVAR :12.17  PPSEN  : 0.05  EMG-FLW:23.00  FLW-FSD: 9.00  FSD-PHM : 11.00    
 WTPSD  :0.600  SDPDVR : 3.50  SDFDUR :15.00  PODDUR :10.00  XFRUIT  :  1.00    
 THRESH : 78.0  SDPRO  :0.235  SDLIP   : 0.030                                  


*SIMULATED CROP AND SOIL STATUS AT MAIN DEVELOPMENT STAGES

 RUN NO.     6     SIM                     

        CROP GROWTH     BIOMASS         LEAF   CROP N     STRESS      STRESS                                           
   DATE  AGE STAGE        kg/ha    LAI   NUM  kg/ha  %   H2O  Nitr Phos1 Phos2  RSTG                                   
 ------  --- ----------   -----  -----  ----  ---  ---  ----  ----  ----  ----  ----                                   
  2 APR    0 Start Sim        0   0.00   0.0    0  0.0  0.00  0.00  0.00  0.00     0
 16 APR    0 Sowing           0   0.00   0.0    0  0.0  0.00  0.00  0.00  0.00     0
 21 APR    5 Emergence       44   0.08   0.2    1  3.4  0.00  0.00  0.00  0.00     0
 21 APR    5 End Juven.      44   0.08   0.2    1  3.4  0.00  0.00  0.00  0.00     0
 24 APR    8 Unifoliate      48   0.09   1.1    2  3.3  0.00  0.66  0.00  0.00     0
 26 APR   10 Flower Ind      55   0.10   1.6    2  3.2  0.00  0.43  0.00  0.00     0
 16 MAY   30 First Flwr     878   2.25   7.4   28  3.1  0.00  0.01  0.00  0.00     1
 19 MAY   33 First Pod     1171   2.73   8.3   37  3.2  0.00  0.00  0.00  0.00     3
 26 MAY   40 First Seed    2149   3.36  10.4   64  3.0  0.00  0.00  0.00  0.00     5
 28 MAY   42 End Msnode    2441   3.37  11.0   72  3.0  0.00  0.00  0.00  0.00     5
  1 JUN   46 End Pod       2972   3.15  11.0   87  2.9  0.00  0.00  0.00  0.00     5
  5 JUN   50 End Leaf      3508   2.85  11.0  101  2.9  0.00  0.00  0.00  0.00     5
  7 JUN   52 Phys. Mat     3756   2.68  11.0  106  2.8  0.00  0.00  0.00  0.00     7
 16 JUN   61 Harv. Mat     3456   0.18  11.0   97  2.8  0.00  0.00  0.00  0.00     8
 16 JUN   61 Harvest       3456   0.18  11.0   97  2.8  0.00  0.00  0.00  0.00     8


*MAIN GROWTH AND DEVELOPMENT VARIABLES

@     VARIABLE                                         SIMULATED     MEASURED
      --------                                         ---------     --------
      Anthesis day (dap)                                      30          -99
      First pod day (dap)                                     33          -99
      First seed day (dap)                                    40          -99
      Physiological maturity day (dap)                        52          -99
      Yield at harvest maturity (kg [dm]/ha)                1859          -99
      Pod/Ear/Panicle weight at maturity (kg [dm]/ha)       2694          -99
      Number at maturity (no/m2)                             533          -99
      Unit wt at maturity (g [dm]/unit)                   0.3491          -99
      Number at maturity (no/unit)                          3.50          -99
      Tops weight at maturity (kg [dm]/ha)                  3456          -99
      By-product produced (stalk) at maturity (kg[dm]/ha    1600          -99
      Leaf area index, maximum                              3.37          -99
      Harvest index at maturity                            0.538          -99
      Threshing % at maturity                              69.01          -99
      Grain N at maturity (kg/ha)                             69          -99
      Tops N at maturity (kg/ha)                              97          -99
      Stem N at maturity (kg/ha)                               9          -99
      Grain N at maturity (%)                               3.74          -99
      Tops weight at anthesis (kg [dm]/ha)                   878          -99
      Tops N at anthesis (kg/ha)                              28          -99
      Leaf number per stem at maturity                     10.98          -99
      Grain oil at maturity (%)                             2.90          -99
      Canopy height (m)                                     0.93          -99
      Harvest maturity day (dap)                              61          -99
      Emergence day (dap)                                      5          -99


*ENVIRONMENTAL AND STRESS FACTORS

 |-----Development Phase------|--------------------------------------Environment--------------------------------------|-----------------Stress-----------------|
                              |---------------Average--------------|-----Cumulative-----|--------Count of days--------|          (0=Min, 1=Max Stress)         |
                         Time  Temp  Temp  Temp Solar Photop                Evapo    Pot TMIN TMIN TMAX TMAX TMAX RAIN|----Water----|---Nitrogen--|-Phosphorus-|
                         Span   Max   Min  Mean   Rad  [day]    CO2   Rain  Trans     ET   <    <    >    >    >    >   Photo         Photo         Photo
                         days    øC    øC    øC MJ/m2     hr    ppm     mm     mm     mm  0øC  2øC 30øC 32øC 34øC  0mm  synth Growth  synth Growth  synth Growth
----------------------------------------------------------------------------------------------------------------------------------------------------------------
 Emergence -First Flower   25  29.0  18.6  23.8  18.9  12.13  345.6   73.1    0.0    0.0    0    0    6    0    0   13  0.000  0.000  0.000  0.120  0.000  0.000
 First Flower-First Seed   10  29.6  19.1  24.3  18.5  12.17  345.7   14.4    0.0    0.0    0    0    4    0    0    5  0.000  0.000  0.000  0.000  0.000  0.000
 First Seed - Phys. Mat.   12  28.5  19.3  23.9  17.0  12.19  345.7   24.9    0.0    0.0    0    0    1    0    0    5  0.000  0.000  0.000  0.000  0.000  0.000
 Emergence  - Phys. Mat.   47  29.0  18.9  23.9  18.3  12.16  345.7  112.4    0.0    0.0    0    0   11    0    0   23  0.000  0.000  0.000  0.064  0.000  0.000


 Planting to Harvest       75  29.2  18.9  24.0  18.6  12.14  345.7  157.3    0.0    0.0    0    0   23    0    0   30  0.000  0.000  0.000  0.040  0.000  0.000
----------------------------------------------------------------------------------------------------------------------------------------------------------------

--------------------------------------------------------------------------------------------------------------

                  Dry bean YIELD :     1859 kg/ha    [Dry weight] 

**************************************************************************************************************

*DSSAT Cropping System Model Ver. 4.6.1.000 -release      JUL 11, 2017; 16:24:51
                                                                                
*RUN   7        : SIM                       CRGRO046 6\000006    1              
 MODEL          : CRGRO046 - Dry bean                                           
 EXPERIMENT     : 6\000006 BN PALMIRA_ANALISIS SENSIBILIDAD                     
 DATA PATH      : D:\B\0\00000                                                  
 TREATMENT  1   : SIM                       CRGRO046                            
                                                                                
                                                                                
 CROP           : Dry bean         CULTIVAR : Jatu Rong        ECOTYPE :ANDIND  
 STARTING DATE  : APR  2 1986                                                   
 PLANTING DATE  : APR 16 1986        PLANTS/m2 : 26.6     ROW SPACING :  60.cm  
 WEATHER        : PALM8034                                                      
 SOIL           : CCPA000030     TEXTURE : C     -   Silty Clay Loam            
 WATER BALANCE  : NOT SIMULATED ; NO H2O-STRESS                                 
 IRRIGATION     :                                                               
 NITROGEN BAL.  : NOT SIMULATED ; NO N-STRESS                                   
 N-FERTILIZER   :                                                               
 RESIDUE/MANURE :                                                               
 ENVIRONM. OPT. : DAYL=    0.00  SRAD=    0.00  TMAX=    0.00  TMIN=    0.00    
                  RAIN=    0.00  CO2 =    0.00  DEW =    0.00  WIND=    0.00    
 SIMULATION OPT : WATER   :N  NITROGEN:N  N-FIX:N  PHOSPH :N  PESTS  :N         
                  PHOTO   :L  ET      :R  INFIL:S  HYDROL :R  SOM    :G         
                  CO2 347ppm  NSWIT   :1  EVAP :S  SOIL   :2  STEMP  :D         
 MANAGEMENT OPT : PLANTING:A  IRRIG   :A  FERT :D  RESIDUE:N  HARVEST:M         
                  WEATHER :M  TILLAGE :N                                        
                                                                                
*SUMMARY OF SOIL AND GENETIC INPUT PARAMETERS                                   
                                                                                
 Dry bean   CULTIVAR :000006-Jatu Rong          ECOTYPE :ANDIND                 
 CSDVAR :12.17  PPSEN  : 0.05  EMG-FLW:23.00  FLW-FSD: 9.00  FSD-PHM : 11.00    
 WTPSD  :0.600  SDPDVR : 3.50  SDFDUR :15.00  PODDUR :10.00  XFRUIT  :  1.00    
 THRESH : 78.0  SDPRO  :0.235  SDLIP   : 0.030                                  


*SIMULATED CROP AND SOIL STATUS AT MAIN DEVELOPMENT STAGES

 RUN NO.     7     SIM                     

        CROP GROWTH     BIOMASS         LEAF   CROP N     STRESS      STRESS                                           
   DATE  AGE STAGE        kg/ha    LAI   NUM  kg/ha  %   H2O  Nitr Phos1 Phos2  RSTG                                   
 ------  --- ----------   -----  -----  ----  ---  ---  ----  ----  ----  ----  ----                                   
  2 APR    0 Start Sim        0   0.00   0.0    0  0.0  0.00  0.00  0.00  0.00     0
 16 APR    0 Sowing           0   0.00   0.0    0  0.0  0.00  0.00  0.00  0.00     0
 21 APR    5 Emergence       44   0.08   0.2    1  3.4  0.00  0.00  0.00  0.00     0
 21 APR    5 End Juven.      44   0.08   0.2    1  3.4  0.00  0.00  0.00  0.00     0
 24 APR    8 Unifoliate      48   0.09   1.1    2  3.3  0.00  0.66  0.00  0.00     0
 26 APR   10 Flower Ind      55   0.10   1.7    2  3.2  0.00  0.44  0.00  0.00     0
 15 MAY   29 First Flwr     839   2.11   7.4   26  3.2  0.00  0.01  0.00  0.00     1
 18 MAY   32 First Pod     1136   2.60   8.3   36  3.2  0.00  0.00  0.00  0.00     3
 25 MAY   39 First Seed    2114   3.24  10.4   64  3.0  0.00  0.00  0.00  0.00     5
 27 MAY   41 End Msnode    2418   3.26  11.0   72  3.0  0.00  0.00  0.00  0.00     5
  1 JUN   46 End Pod       3115   3.04  11.0   91  2.9  0.00  0.00  0.00  0.00     5
  4 JUN   49 End Leaf      3494   2.81  11.0  100  2.9  0.00  0.00  0.00  0.00     5
  7 JUN   52 Phys. Mat     3859   2.56  11.0  109  2.8  0.00  0.00  0.00  0.00     7
 16 JUN   61 Harv. Mat     3541   0.18  11.0   99  2.8  0.00  0.00  0.00  0.00     8
 16 JUN   61 Harvest       3541   0.18  11.0   99  2.8  0.00  0.00  0.00  0.00     8


*MAIN GROWTH AND DEVELOPMENT VARIABLES

@     VARIABLE                                         SIMULATED     MEASURED
      --------                                         ---------     --------
      Anthesis day (dap)                                      29          -99
      First pod day (dap)                                     32          -99
      First seed day (dap)                                    39          -99
      Physiological maturity day (dap)                        52          -99
      Yield at harvest maturity (kg [dm]/ha)                1922          -99
      Pod/Ear/Panicle weight at maturity (kg [dm]/ha)       2750          -99
      Number at maturity (no/m2)                             539          -99
      Unit wt at maturity (g [dm]/unit)                   0.3564          -99
      Number at maturity (no/unit)                          3.50          -99
      Tops weight at maturity (kg [dm]/ha)                  3541          -99
      By-product produced (stalk) at maturity (kg[dm]/ha    1620          -99
      Leaf area index, maximum                              3.26          -99
      Harvest index at maturity                            0.543          -99
      Threshing % at maturity                              69.88          -99
      Grain N at maturity (kg/ha)                             72          -99
      Tops N at maturity (kg/ha)                              99          -99
      Stem N at maturity (kg/ha)                               9          -99
      Grain N at maturity (%)                               3.75          -99
      Tops weight at anthesis (kg [dm]/ha)                   839          -99
      Tops N at anthesis (kg/ha)                              26          -99
      Leaf number per stem at maturity                     11.01          -99
      Grain oil at maturity (%)                             2.86          -99
      Canopy height (m)                                     0.94          -99
      Harvest maturity day (dap)                              61          -99
      Emergence day (dap)                                      5          -99


*ENVIRONMENTAL AND STRESS FACTORS

 |-----Development Phase------|--------------------------------------Environment--------------------------------------|-----------------Stress-----------------|
                              |---------------Average--------------|-----Cumulative-----|--------Count of days--------|          (0=Min, 1=Max Stress)         |
                         Time  Temp  Temp  Temp Solar Photop                Evapo    Pot TMIN TMIN TMAX TMAX TMAX RAIN|----Water----|---Nitrogen--|-Phosphorus-|
                         Span   Max   Min  Mean   Rad  [day]    CO2   Rain  Trans     ET   <    <    >    >    >    >   Photo         Photo         Photo
                         days    øC    øC    øC MJ/m2     hr    ppm     mm     mm     mm  0øC  2øC 30øC 32øC 34øC  0mm  synth Growth  synth Growth  synth Growth
----------------------------------------------------------------------------------------------------------------------------------------------------------------
 Emergence -First Flower   24  30.5  19.4  24.9  19.4  12.13  346.8   62.8    0.0    0.0    0    0   15    4    0   14  0.000  0.000  0.000  0.128  0.000  0.000
 First Flower-First Seed   10  31.3  19.3  25.3  19.8  12.17  346.9   36.5    0.0    0.0    0    0   10    1    0    5  0.000  0.000  0.000  0.000  0.000  0.000
 First Seed - Phys. Mat.   13  28.8  18.8  23.8  17.7  12.19  346.9  105.9    0.0    0.0    0    0    5    0    0    7  0.000  0.000  0.000  0.000  0.000  0.000
 Emergence  - Phys. Mat.   47  30.2  19.2  24.7  19.0  12.16  346.9  205.2    0.0    0.0    0    0   30    5    0   26  0.000  0.000  0.000  0.065  0.000  0.000


 Planting to Harvest       75  29.6  19.2  24.4  18.6  12.14  346.8  310.1    0.0    0.0    0    0   36    5    0   40  0.000  0.000  0.000  0.041  0.000  0.000
----------------------------------------------------------------------------------------------------------------------------------------------------------------

--------------------------------------------------------------------------------------------------------------

                  Dry bean YIELD :     1922 kg/ha    [Dry weight] 

**************************************************************************************************************

*DSSAT Cropping System Model Ver. 4.6.1.000 -release      JUL 11, 2017; 16:24:51
                                                                                
*RUN   8        : SIM                       CRGRO046 6\000006    1              
 MODEL          : CRGRO046 - Dry bean                                           
 EXPERIMENT     : 6\000006 BN PALMIRA_ANALISIS SENSIBILIDAD                     
 DATA PATH      : D:\B\0\00000                                                  
 TREATMENT  1   : SIM                       CRGRO046                            
                                                                                
                                                                                
 CROP           : Dry bean         CULTIVAR : Jatu Rong        ECOTYPE :ANDIND  
 STARTING DATE  : APR  2 1987                                                   
 PLANTING DATE  : APR 16 1987        PLANTS/m2 : 26.6     ROW SPACING :  60.cm  
 WEATHER        : PALM8034                                                      
 SOIL           : CCPA000030     TEXTURE : C     -   Silty Clay Loam            
 WATER BALANCE  : NOT SIMULATED ; NO H2O-STRESS                                 
 IRRIGATION     :                                                               
 NITROGEN BAL.  : NOT SIMULATED ; NO N-STRESS                                   
 N-FERTILIZER   :                                                               
 RESIDUE/MANURE :                                                               
 ENVIRONM. OPT. : DAYL=    0.00  SRAD=    0.00  TMAX=    0.00  TMIN=    0.00    
                  RAIN=    0.00  CO2 =    0.00  DEW =    0.00  WIND=    0.00    
 SIMULATION OPT : WATER   :N  NITROGEN:N  N-FIX:N  PHOSPH :N  PESTS  :N         
                  PHOTO   :L  ET      :R  INFIL:S  HYDROL :R  SOM    :G         
                  CO2 348ppm  NSWIT   :1  EVAP :S  SOIL   :2  STEMP  :D         
 MANAGEMENT OPT : PLANTING:A  IRRIG   :A  FERT :D  RESIDUE:N  HARVEST:M         
                  WEATHER :M  TILLAGE :N                                        
                                                                                
*SUMMARY OF SOIL AND GENETIC INPUT PARAMETERS                                   
                                                                                
 Dry bean   CULTIVAR :000006-Jatu Rong          ECOTYPE :ANDIND                 
 CSDVAR :12.17  PPSEN  : 0.05  EMG-FLW:23.00  FLW-FSD: 9.00  FSD-PHM : 11.00    
 WTPSD  :0.600  SDPDVR : 3.50  SDFDUR :15.00  PODDUR :10.00  XFRUIT  :  1.00    
 THRESH : 78.0  SDPRO  :0.235  SDLIP   : 0.030                                  


*SIMULATED CROP AND SOIL STATUS AT MAIN DEVELOPMENT STAGES

 RUN NO.     8     SIM                     

        CROP GROWTH     BIOMASS         LEAF   CROP N     STRESS      STRESS                                           
   DATE  AGE STAGE        kg/ha    LAI   NUM  kg/ha  %   H2O  Nitr Phos1 Phos2  RSTG                                   
 ------  --- ----------   -----  -----  ----  ---  ---  ----  ----  ----  ----  ----                                   
  2 APR    0 Start Sim        0   0.00   0.0    0  0.0  0.00  0.00  0.00  0.00     0
 16 APR    0 Sowing           0   0.00   0.0    0  0.0  0.00  0.00  0.00  0.00     0
 21 APR    5 Emergence       44   0.08   0.2    1  3.4  0.00  0.00  0.00  0.00     0
 21 APR    5 End Juven.      44   0.08   0.2    1  3.4  0.00  0.00  0.00  0.00     0
 24 APR    8 Unifoliate      49   0.09   1.1    2  3.3  0.00  0.65  0.00  0.00     0
 26 APR   10 Flower Ind      56   0.10   1.7    2  3.2  0.00  0.43  0.00  0.00     0
 15 MAY   29 First Flwr     872   2.18   7.4   27  3.2  0.00  0.01  0.00  0.00     1
 18 MAY   32 First Pod     1175   2.69   8.3   37  3.2  0.00  0.00  0.00  0.00     3
 25 MAY   39 First Seed    2175   3.40  10.4   65  3.0  0.00  0.00  0.00  0.00     5
 27 MAY   41 End Msnode    2476   3.42  11.0   74  3.0  0.00  0.00  0.00  0.00     5
  1 JUN   46 End Pod       3192   3.18  11.0   94  2.9  0.00  0.00  0.00  0.00     5
  4 JUN   49 End Leaf      3576   2.92  11.0  103  2.9  0.00  0.00  0.00  0.00     5
  6 JUN   51 Phys. Mat     3824   2.74  11.0  108  2.8  0.00  0.00  0.00  0.00     7
 15 JUN   60 Harv. Mat     3482   0.19  11.0   97  2.8  0.00  0.00  0.00  0.00     8
 15 JUN   60 Harvest       3482   0.19  11.0   97  2.8  0.00  0.00  0.00  0.00     8


*MAIN GROWTH AND DEVELOPMENT VARIABLES

@     VARIABLE                                         SIMULATED     MEASURED
      --------                                         ---------     --------
      Anthesis day (dap)                                      29          -99
      First pod day (dap)                                     32          -99
      First seed day (dap)                                    39          -99
      Physiological maturity day (dap)                        51          -99
      Yield at harvest maturity (kg [dm]/ha)                1862          -99
      Pod/Ear/Panicle weight at maturity (kg [dm]/ha)       2655          -99
      Number at maturity (no/m2)                             524          -99
      Unit wt at maturity (g [dm]/unit)                   0.3553          -99
      Number at maturity (no/unit)                          3.50          -99
      Tops weight at maturity (kg [dm]/ha)                  3482          -99
      By-product produced (stalk) at maturity (kg[dm]/ha    1620          -99
      Leaf area index, maximum                              3.42          -99
      Harvest index at maturity                            0.535          -99
      Threshing % at maturity                              70.13          -99
      Grain N at maturity (kg/ha)                             70          -99
      Tops N at maturity (kg/ha)                              97          -99
      Stem N at maturity (kg/ha)                               9          -99
      Grain N at maturity (%)                               3.78          -99
      Tops weight at anthesis (kg [dm]/ha)                   872          -99
      Tops N at anthesis (kg/ha)                              27          -99
      Leaf number per stem at maturity                     11.02          -99
      Grain oil at maturity (%)                             2.91          -99
      Canopy height (m)                                     0.94          -99
      Harvest maturity day (dap)                              60          -99
      Emergence day (dap)                                      5          -99


*ENVIRONMENTAL AND STRESS FACTORS

 |-----Development Phase------|--------------------------------------Environment--------------------------------------|-----------------Stress-----------------|
                              |---------------Average--------------|-----Cumulative-----|--------Count of days--------|          (0=Min, 1=Max Stress)         |
                         Time  Temp  Temp  Temp Solar Photop                Evapo    Pot TMIN TMIN TMAX TMAX TMAX RAIN|----Water----|---Nitrogen--|-Phosphorus-|
                         Span   Max   Min  Mean   Rad  [day]    CO2   Rain  Trans     ET   <    <    >    >    >    >   Photo         Photo         Photo
                         days    øC    øC    øC MJ/m2     hr    ppm     mm     mm     mm  0øC  2øC 30øC 32øC 34øC  0mm  synth Growth  synth Growth  synth Growth
----------------------------------------------------------------------------------------------------------------------------------------------------------------
 Emergence -First Flower   24  31.1  18.9  25.0  20.4  12.13  348.5  140.8    0.0    0.0    0    0   18    6    1   16  0.000  0.000  0.000  0.123  0.000  0.000
 First Flower-First Seed   10  31.6  19.3  25.5  20.1  12.17  348.6   57.2    0.0    0.0    0    0   10    4    0    5  0.000  0.000  0.000  0.000  0.000  0.000
 First Seed - Phys. Mat.   12  30.3  19.7  25.0  18.3  12.19  348.6   33.9    0.0    0.0    0    0    6    3    0    2  0.000  0.000  0.000  0.000  0.000  0.000
 Emergence  - Phys. Mat.   46  31.0  19.2  25.1  19.7  12.15  348.6  231.9    0.0    0.0    0    0   34   13    1   23  0.000  0.000  0.000  0.064  0.000  0.000


 Planting to Harvest       74  31.1  19.4  25.2  19.8  12.14  348.5  239.2    0.0    0.0    0    0   55   20    1   29  0.000  0.000  0.000  0.040  0.000  0.000
----------------------------------------------------------------------------------------------------------------------------------------------------------------

--------------------------------------------------------------------------------------------------------------

                  Dry bean YIELD :     1862 kg/ha    [Dry weight] 

**************************************************************************************************************

*DSSAT Cropping System Model Ver. 4.6.1.000 -release      JUL 11, 2017; 16:24:51
                                                                                
*RUN   9        : SIM                       CRGRO046 6\000006    1              
 MODEL          : CRGRO046 - Dry bean                                           
 EXPERIMENT     : 6\000006 BN PALMIRA_ANALISIS SENSIBILIDAD                     
 DATA PATH      : D:\B\0\00000                                                  
 TREATMENT  1   : SIM                       CRGRO046                            
                                                                                
                                                                                
 CROP           : Dry bean         CULTIVAR : Jatu Rong        ECOTYPE :ANDIND  
 STARTING DATE  : APR  1 1988                                                   
 PLANTING DATE  : APR 15 1988        PLANTS/m2 : 26.6     ROW SPACING :  60.cm  
 WEATHER        : PALM8034                                                      
 SOIL           : CCPA000030     TEXTURE : C     -   Silty Clay Loam            
 WATER BALANCE  : NOT SIMULATED ; NO H2O-STRESS                                 
 IRRIGATION     :                                                               
 NITROGEN BAL.  : NOT SIMULATED ; NO N-STRESS                                   
 N-FERTILIZER   :                                                               
 RESIDUE/MANURE :                                                               
 ENVIRONM. OPT. : DAYL=    0.00  SRAD=    0.00  TMAX=    0.00  TMIN=    0.00    
                  RAIN=    0.00  CO2 =    0.00  DEW =    0.00  WIND=    0.00    
 SIMULATION OPT : WATER   :N  NITROGEN:N  N-FIX:N  PHOSPH :N  PESTS  :N         
                  PHOTO   :L  ET      :R  INFIL:S  HYDROL :R  SOM    :G         
                  CO2 351ppm  NSWIT   :1  EVAP :S  SOIL   :2  STEMP  :D         
 MANAGEMENT OPT : PLANTING:A  IRRIG   :A  FERT :D  RESIDUE:N  HARVEST:M         
                  WEATHER :M  TILLAGE :N                                        
                                                                                
*SUMMARY OF SOIL AND GENETIC INPUT PARAMETERS                                   
                                                                                
 Dry bean   CULTIVAR :000006-Jatu Rong          ECOTYPE :ANDIND                 
 CSDVAR :12.17  PPSEN  : 0.05  EMG-FLW:23.00  FLW-FSD: 9.00  FSD-PHM : 11.00    
 WTPSD  :0.600  SDPDVR : 3.50  SDFDUR :15.00  PODDUR :10.00  XFRUIT  :  1.00    
 THRESH : 78.0  SDPRO  :0.235  SDLIP   : 0.030                                  


*SIMULATED CROP AND SOIL STATUS AT MAIN DEVELOPMENT STAGES

 RUN NO.     9     SIM                     

        CROP GROWTH     BIOMASS         LEAF   CROP N     STRESS      STRESS                                           
   DATE  AGE STAGE        kg/ha    LAI   NUM  kg/ha  %   H2O  Nitr Phos1 Phos2  RSTG                                   
 ------  --- ----------   -----  -----  ----  ---  ---  ----  ----  ----  ----  ----                                   
  1 APR    0 Start Sim        0   0.00   0.0    0  0.0  0.00  0.00  0.00  0.00     0
 15 APR    0 Sowing           0   0.00   0.0    0  0.0  0.00  0.00  0.00  0.00     0
 20 APR    5 Emergence       44   0.08   0.2    1  3.4  0.00  0.00  0.00  0.00     0
 20 APR    5 End Juven.      44   0.08   0.2    1  3.4  0.00  0.00  0.00  0.00     0
 23 APR    8 Unifoliate      48   0.09   1.0    2  3.3  0.00  0.65  0.00  0.00     0
 25 APR   10 Flower Ind      56   0.10   1.6    2  3.2  0.00  0.41  0.00  0.00     0
 14 MAY   29 First Flwr     783   2.10   7.3   24  3.1  0.00  0.01  0.00  0.00     1
 17 MAY   32 First Pod     1068   2.54   8.2   34  3.2  0.00  0.00  0.00  0.00     3
 24 MAY   39 First Seed    2004   3.20  10.2   61  3.0  0.00  0.00  0.00  0.00     5
 26 MAY   41 End Msnode    2272   3.21  10.8   68  3.0  0.00  0.00  0.00  0.00     5
 31 MAY   46 End Pod       2951   2.99  10.8   87  2.9  0.00  0.00  0.00  0.00     5
  3 JUN   49 End Leaf      3350   2.76  10.8   96  2.9  0.00  0.00  0.00  0.00     5
  6 JUN   52 Phys. Mat     3737   2.51  10.8  105  2.8  0.00  0.00  0.00  0.00     7
 15 JUN   61 Harv. Mat     3459   0.17  10.8   97  2.8  0.00  0.00  0.00  0.00     8
 15 JUN   61 Harvest       3459   0.17  10.8   97  2.8  0.00  0.00  0.00  0.00     8


*MAIN GROWTH AND DEVELOPMENT VARIABLES

@     VARIABLE                                         SIMULATED     MEASURED
      --------                                         ---------     --------
      Anthesis day (dap)                                      29          -99
      First pod day (dap)                                     32          -99
      First seed day (dap)                                    39          -99
      Physiological maturity day (dap)                        52          -99
      Yield at harvest maturity (kg [dm]/ha)                1814          -99
      Pod/Ear/Panicle weight at maturity (kg [dm]/ha)       2701          -99
      Number at maturity (no/m2)                             563          -99
      Unit wt at maturity (g [dm]/unit)                   0.3222          -99
      Number at maturity (no/unit)                          3.50          -99
      Tops weight at maturity (kg [dm]/ha)                  3459          -99
      By-product produced (stalk) at maturity (kg[dm]/ha    1640          -99
      Leaf area index, maximum                              3.22          -99
      Harvest index at maturity                            0.524          -99
      Threshing % at maturity                              67.15          -99
      Grain N at maturity (kg/ha)                             69          -99
      Tops N at maturity (kg/ha)                              97          -99
      Stem N at maturity (kg/ha)                               8          -99
      Grain N at maturity (%)                               3.83          -99
      Tops weight at anthesis (kg [dm]/ha)                   783          -99
      Tops N at anthesis (kg/ha)                              24          -99
      Leaf number per stem at maturity                     10.80          -99
      Grain oil at maturity (%)                             2.83          -99
      Canopy height (m)                                     0.92          -99
      Harvest maturity day (dap)                              61          -99
      Emergence day (dap)                                      5          -99


*ENVIRONMENTAL AND STRESS FACTORS

 |-----Development Phase------|--------------------------------------Environment--------------------------------------|-----------------Stress-----------------|
                              |---------------Average--------------|-----Cumulative-----|--------Count of days--------|          (0=Min, 1=Max Stress)         |
                         Time  Temp  Temp  Temp Solar Photop                Evapo    Pot TMIN TMIN TMAX TMAX TMAX RAIN|----Water----|---Nitrogen--|-Phosphorus-|
                         Span   Max   Min  Mean   Rad  [day]    CO2   Rain  Trans     ET   <    <    >    >    >    >   Photo         Photo         Photo
                         days    øC    øC    øC MJ/m2     hr    ppm     mm     mm     mm  0øC  2øC 30øC 32øC 34øC  0mm  synth Growth  synth Growth  synth Growth
----------------------------------------------------------------------------------------------------------------------------------------------------------------
 Emergence -First Flower   24  29.1  19.4  24.3  18.1  12.13  351.0   83.2    0.0    0.0    0    0    6    0    0    9  0.000  0.000  0.000  0.127  0.000  0.000
 First Flower-First Seed   10  29.6  18.8  24.2  18.7  12.17  351.2    2.1    0.0    0.0    0    0    3    0    0    3  0.000  0.000  0.000  0.000  0.000  0.000
 First Seed - Phys. Mat.   13  30.3  18.9  24.6  18.8  12.19  351.2  117.3    0.0    0.0    0    0    7    5    1    8  0.000  0.000  0.000  0.000  0.000  0.000
 Emergence  - Phys. Mat.   47  29.6  19.2  24.4  18.5  12.16  351.1  202.6    0.0    0.0    0    0   16    5    1   20  0.000  0.000  0.000  0.065  0.000  0.000


 Planting to Harvest       75  29.5  19.3  24.4  18.4  12.14  351.1  352.0    0.0    0.0    0    0   30    7    1   34  0.000  0.000  0.000  0.041  0.000  0.000
----------------------------------------------------------------------------------------------------------------------------------------------------------------

--------------------------------------------------------------------------------------------------------------

                  Dry bean YIELD :     1814 kg/ha    [Dry weight] 

**************************************************************************************************************

*DSSAT Cropping System Model Ver. 4.6.1.000 -release      JUL 11, 2017; 16:24:51
                                                                                
*RUN  10        : SIM                       CRGRO046 6\000006    1              
 MODEL          : CRGRO046 - Dry bean                                           
 EXPERIMENT     : 6\000006 BN PALMIRA_ANALISIS SENSIBILIDAD                     
 DATA PATH      : D:\B\0\00000                                                  
 TREATMENT  1   : SIM                       CRGRO046                            
[...]
      Emergence day (dap)                                      5          -99


*ENVIRONMENTAL AND STRESS FACTORS

 |-----Development Phase------|--------------------------------------Environment--------------------------------------|-----------------Stress-----------------|
                              |---------------Average--------------|-----Cumulative-----|--------Count of days--------|          (0=Min, 1=Max Stress)         |
                         Time  Temp  Temp  Temp Solar Photop                Evapo    Pot TMIN TMIN TMAX TMAX TMAX RAIN|----Water----|---Nitrogen--|-Phosphorus-|
                         Span   Max   Min  Mean   Rad  [day]    CO2   Rain  Trans     ET   <    <    >    >    >    >   Photo         Photo         Photo
                         days    øC    øC    øC MJ/m2     hr    ppm     mm     mm     mm  0øC  2øC 30øC 32øC 34øC  0mm  synth Growth  synth Growth  synth Growth
----------------------------------------------------------------------------------------------------------------------------------------------------------------
 Emergence -First Flower   25  30.4  19.0  24.7  19.6  12.13  386.9   52.7    0.0    0.0    0    0   18    2    0   15  0.000  0.000  0.000  0.113  0.000  0.000
 First Flower-First Seed    9  30.8  18.9  24.8  19.6  12.17  387.1    0.0    0.0    0.0    0    0    8    0    0    0  0.000  0.000  0.000  0.000  0.000  0.000
 First Seed - Phys. Mat.   13  30.7  19.1  24.9  19.1  12.19  387.1   38.9    0.0    0.0    0    0    7    3    0    5  0.000  0.000  0.000  0.000  0.000  0.000
 Emergence  - Phys. Mat.   47  30.5  19.0  24.8  19.5  12.16  387.0   91.6    0.0    0.0    0    0   33    5    0   20  0.000  0.000  0.000  0.060  0.000  0.000


 Planting to Harvest       75  30.1  19.2  24.7  19.1  12.14  387.0  105.7    0.0    0.0    0    0   45    5    0   32  0.000  0.000  0.000  0.038  0.000  0.000
----------------------------------------------------------------------------------------------------------------------------------------------------------------

--------------------------------------------------------------------------------------------------------------

                  Dry bean YIELD :     1874 kg/ha    [Dry weight] 

**************************************************************************************************************

*DSSAT Cropping System Model Ver. 4.6.1.000 -release      JUL 11, 2017; 16:24:51
                                                                                
*RUN  31        : SIM                       CRGRO046 6\000006    1              
 MODEL          : CRGRO046 - Dry bean                                           
 EXPERIMENT     : 6\000006 BN PALMIRA_ANALISIS SENSIBILIDAD                     
 DATA PATH      : D:\B\0\00000                                                  
 TREATMENT  1   : SIM                       CRGRO046                            
                                                                                
                                                                                
 CROP           : Dry bean         CULTIVAR : Jatu Rong        ECOTYPE :ANDIND  
 STARTING DATE  : APR  2 2010                                                   
 PLANTING DATE  : APR 16 2010        PLANTS/m2 : 26.6     ROW SPACING :  60.cm  
 WEATHER        : PALM8034                                                      
 SOIL           : CCPA000030     TEXTURE : C     -   Silty Clay Loam            
 WATER BALANCE  : NOT SIMULATED ; NO H2O-STRESS                                 
 IRRIGATION     :                                                               
 NITROGEN BAL.  : NOT SIMULATED ; NO N-STRESS                                   
 N-FERTILIZER   :                                                               
 RESIDUE/MANURE :                                                               
 ENVIRONM. OPT. : DAYL=    0.00  SRAD=    0.00  TMAX=    0.00  TMIN=    0.00    
                  RAIN=    0.00  CO2 =    0.00  DEW =    0.00  WIND=    0.00    
 SIMULATION OPT : WATER   :N  NITROGEN:N  N-FIX:N  PHOSPH :N  PESTS  :N         
                  PHOTO   :L  ET      :R  INFIL:S  HYDROL :R  SOM    :G         
                  CO2 389ppm  NSWIT   :1  EVAP :S  SOIL   :2  STEMP  :D         
 MANAGEMENT OPT : PLANTING:A  IRRIG   :A  FERT :D  RESIDUE:N  HARVEST:M         
                  WEATHER :M  TILLAGE :N                                        
                                                                                
*SUMMARY OF SOIL AND GENETIC INPUT PARAMETERS                                   
                                                                                
 Dry bean   CULTIVAR :000006-Jatu Rong          ECOTYPE :ANDIND                 
 CSDVAR :12.17  PPSEN  : 0.05  EMG-FLW:23.00  FLW-FSD: 9.00  FSD-PHM : 11.00    
 WTPSD  :0.600  SDPDVR : 3.50  SDFDUR :15.00  PODDUR :10.00  XFRUIT  :  1.00    
 THRESH : 78.0  SDPRO  :0.235  SDLIP   : 0.030                                  


*SIMULATED CROP AND SOIL STATUS AT MAIN DEVELOPMENT STAGES

 RUN NO.    31     SIM                     

        CROP GROWTH     BIOMASS         LEAF   CROP N     STRESS      STRESS                                           
   DATE  AGE STAGE        kg/ha    LAI   NUM  kg/ha  %   H2O  Nitr Phos1 Phos2  RSTG                                   
 ------  --- ----------   -----  -----  ----  ---  ---  ----  ----  ----  ----  ----                                   
  2 APR    0 Start Sim        0   0.00   0.0    0  0.0  0.00  0.00  0.00  0.00     0
 16 APR    0 Sowing           0   0.00   0.0    0  0.0  0.00  0.00  0.00  0.00     0
 21 APR    5 Emergence       44   0.08   0.2    1  3.4  0.00  0.00  0.00  0.00     0
 21 APR    5 End Juven.      44   0.08   0.2    1  3.4  0.00  0.00  0.00  0.00     0
 24 APR    8 Unifoliate      49   0.09   1.1    2  3.3  0.00  0.66  0.00  0.00     0
 26 APR   10 Flower Ind      55   0.10   1.7    2  3.1  0.00  0.45  0.00  0.00     0
 15 MAY   29 First Flwr     887   2.30   7.5   28  3.1  0.00  0.01  0.00  0.00     1
 18 MAY   32 First Pod     1212   2.85   8.5   38  3.1  0.00  0.00  0.00  0.00     3
 24 MAY   38 First Seed    2030   3.44  10.3   61  3.0  0.00  0.00  0.00  0.00     5
 27 MAY   41 End Msnode    2449   3.43  11.1   73  3.0  0.00  0.00  0.00  0.00     5
 31 MAY   45 End Pod       3044   3.23  11.1   89  2.9  0.00  0.00  0.00  0.00     5
  3 JUN   48 End Leaf      3424   2.99  11.1   98  2.9  0.00  0.00  0.00  0.00     5
  6 JUN   51 Phys. Mat     3848   2.72  11.1  109  2.8  0.00  0.00  0.00  0.00     7
 15 JUN   60 Harv. Mat     3572   0.19  11.1  100  2.8  0.00  0.00  0.00  0.00     8
 15 JUN   60 Harvest       3572   0.19  11.1  100  2.8  0.00  0.00  0.00  0.00     8


*MAIN GROWTH AND DEVELOPMENT VARIABLES

@     VARIABLE                                         SIMULATED     MEASURED
      --------                                         ---------     --------
      Anthesis day (dap)                                      29          -99
      First pod day (dap)                                     32          -99
      First seed day (dap)                                    38          -99
      Physiological maturity day (dap)                        51          -99
      Yield at harvest maturity (kg [dm]/ha)                1893          -99
      Pod/Ear/Panicle weight at maturity (kg [dm]/ha)       2784          -99
      Number at maturity (no/m2)                             563          -99
      Unit wt at maturity (g [dm]/unit)                   0.3360          -99
      Number at maturity (no/unit)                          3.50          -99
      Tops weight at maturity (kg [dm]/ha)                  3572          -99
      By-product produced (stalk) at maturity (kg[dm]/ha    1680          -99
      Leaf area index, maximum                              3.47          -99
      Harvest index at maturity                            0.530          -99
      Threshing % at maturity                              67.98          -99
      Grain N at maturity (kg/ha)                             71          -99
      Tops N at maturity (kg/ha)                             100          -99
      Stem N at maturity (kg/ha)                               9          -99
      Grain N at maturity (%)                               3.77          -99
      Tops weight at anthesis (kg [dm]/ha)                   887          -99
      Tops N at anthesis (kg/ha)                              28          -99
      Leaf number per stem at maturity                     11.12          -99
      Grain oil at maturity (%)                             2.90          -99
      Canopy height (m)                                     0.97          -99
      Harvest maturity day (dap)                              60          -99
      Emergence day (dap)                                      5          -99


*ENVIRONMENTAL AND STRESS FACTORS

 |-----Development Phase------|--------------------------------------Environment--------------------------------------|-----------------Stress-----------------|
                              |---------------Average--------------|-----Cumulative-----|--------Count of days--------|          (0=Min, 1=Max Stress)         |
                         Time  Temp  Temp  Temp Solar Photop                Evapo    Pot TMIN TMIN TMAX TMAX TMAX RAIN|----Water----|---Nitrogen--|-Phosphorus-|
                         Span   Max   Min  Mean   Rad  [day]    CO2   Rain  Trans     ET   <    <    >    >    >    >   Photo         Photo         Photo
                         days    øC    øC    øC MJ/m2     hr    ppm     mm     mm     mm  0øC  2øC 30øC 32øC 34øC  0mm  synth Growth  synth Growth  synth Growth
----------------------------------------------------------------------------------------------------------------------------------------------------------------
 Emergence -First Flower   24  29.8  20.2  25.0  17.9  12.13  389.4  122.8    0.0    0.0    0    0   13    1    0   10  0.000  0.000  0.000  0.124  0.000  0.000
 First Flower-First Seed    9  29.6  20.8  25.2  16.8  12.17  389.6   38.8    0.0    0.0    0    0    6    0    0    5  0.000  0.000  0.000  0.000  0.000  0.000
 First Seed - Phys. Mat.   13  28.6  19.4  24.0  16.9  12.19  389.6   53.3    0.0    0.0    0    0    5    0    0    7  0.000  0.000  0.000  0.000  0.000  0.000
 Emergence  - Phys. Mat.   46  29.4  20.1  24.8  17.4  12.15  389.5  214.9    0.0    0.0    0    0   24    1    0   22  0.000  0.000  0.000  0.065  0.000  0.000


 Planting to Harvest       74  29.4  19.9  24.7  17.8  12.14  389.4  364.0    0.0    0.0    0    0   37    3    0   39  0.000  0.000  0.000  0.040  0.000  0.000
----------------------------------------------------------------------------------------------------------------------------------------------------------------

--------------------------------------------------------------------------------------------------------------

                  Dry bean YIELD :     1893 kg/ha    [Dry weight] 

**************************************************************************************************************

*DSSAT Cropping System Model Ver. 4.6.1.000 -release      JUL 11, 2017; 16:24:51
                                                                                
*RUN  32        : SIM                       CRGRO046 6\000006    1              
 MODEL          : CRGRO046 - Dry bean                                           
 EXPERIMENT     : 6\000006 BN PALMIRA_ANALISIS SENSIBILIDAD                     
 DATA PATH      : D:\B\0\00000                                                  
 TREATMENT  1   : SIM                       CRGRO046                            
                                                                                
                                                                                
 CROP           : Dry bean         CULTIVAR : Jatu Rong        ECOTYPE :ANDIND  
 STARTING DATE  : APR  2 2011                                                   
 PLANTING DATE  : APR 16 2011        PLANTS/m2 : 26.6     ROW SPACING :  60.cm  
 WEATHER        : PALM8034                                                      
 SOIL           : CCPA000030     TEXTURE : C     -   Silty Clay Loam            
 WATER BALANCE  : NOT SIMULATED ; NO H2O-STRESS                                 
 IRRIGATION     :                                                               
 NITROGEN BAL.  : NOT SIMULATED ; NO N-STRESS                                   
 N-FERTILIZER   :                                                               
 RESIDUE/MANURE :                                                               
 ENVIRONM. OPT. : DAYL=    0.00  SRAD=    0.00  TMAX=    0.00  TMIN=    0.00    
                  RAIN=    0.00  CO2 =    0.00  DEW =    0.00  WIND=    0.00    
 SIMULATION OPT : WATER   :N  NITROGEN:N  N-FIX:N  PHOSPH :N  PESTS  :N         
                  PHOTO   :L  ET      :R  INFIL:S  HYDROL :R  SOM    :G         
                  CO2 391ppm  NSWIT   :1  EVAP :S  SOIL   :2  STEMP  :D         
 MANAGEMENT OPT : PLANTING:A  IRRIG   :A  FERT :D  RESIDUE:N  HARVEST:M         
                  WEATHER :M  TILLAGE :N                                        
                                                                                
*SUMMARY OF SOIL AND GENETIC INPUT PARAMETERS                                   
                                                                                
 Dry bean   CULTIVAR :000006-Jatu Rong          ECOTYPE :ANDIND                 
 CSDVAR :12.17  PPSEN  : 0.05  EMG-FLW:23.00  FLW-FSD: 9.00  FSD-PHM : 11.00    
 WTPSD  :0.600  SDPDVR : 3.50  SDFDUR :15.00  PODDUR :10.00  XFRUIT  :  1.00    
 THRESH : 78.0  SDPRO  :0.235  SDLIP   : 0.030                                  


*SIMULATED CROP AND SOIL STATUS AT MAIN DEVELOPMENT STAGES

 RUN NO.    32     SIM                     

        CROP GROWTH     BIOMASS         LEAF   CROP N     STRESS      STRESS                                           
   DATE  AGE STAGE        kg/ha    LAI   NUM  kg/ha  %   H2O  Nitr Phos1 Phos2  RSTG                                   
 ------  --- ----------   -----  -----  ----  ---  ---  ----  ----  ----  ----  ----                                   
  2 APR    0 Start Sim        0   0.00   0.0    0  0.0  0.00  0.00  0.00  0.00     0
 16 APR    0 Sowing           0   0.00   0.0    0  0.0  0.00  0.00  0.00  0.00     0
 21 APR    5 Emergence       44   0.08   0.2    1  3.4  0.00  0.00  0.00  0.00     0
 21 APR    5 End Juven.      44   0.08   0.2    1  3.4  0.00  0.00  0.00  0.00     0
 24 APR    8 Unifoliate      49   0.09   1.1    2  3.3  0.00  0.64  0.00  0.00     0
 26 APR   10 Flower Ind      57   0.10   1.7    2  3.1  0.00  0.39  0.00  0.00     0
 15 MAY   29 First Flwr     885   2.31   7.4   28  3.1  0.00  0.01  0.00  0.00     1
 18 MAY   32 First Pod     1209   2.82   8.3   38  3.2  0.00  0.00  0.00  0.00     3
 25 MAY   39 First Seed    2261   3.49  10.3   68  3.0  0.00  0.00  0.00  0.00     5
 27 MAY   41 End Msnode    2588   3.52  11.0   77  3.0  0.00  0.00  0.00  0.00     5
  1 JUN   46 End Pod       3339   3.26  11.0   98  2.9  0.00  0.00  0.00  0.00     5
  4 JUN   49 End Leaf      3730   3.01  11.0  107  2.9  0.00  0.00  0.00  0.00     5
  6 JUN   51 Phys. Mat     4013   2.81  11.0  114  2.8  0.00  0.00  0.00  0.00     7
 15 JUN   60 Harv. Mat     3716   0.19  11.0  104  2.8  0.00  0.00  0.00  0.00     8
 15 JUN   60 Harvest       3716   0.19  11.0  104  2.8  0.00  0.00  0.00  0.00     8


*MAIN GROWTH AND DEVELOPMENT VARIABLES

@     VARIABLE                                         SIMULATED     MEASURED
      --------                                         ---------     --------
      Anthesis day (dap)                                      29          -99
      First pod day (dap)                                     32          -99
      First seed day (dap)                                    39          -99
      Physiological maturity day (dap)                        51          -99
      Yield at harvest maturity (kg [dm]/ha)                1949          -99
      Pod/Ear/Panicle weight at maturity (kg [dm]/ha)       2847          -99
      Number at maturity (no/m2)                             577          -99
      Unit wt at maturity (g [dm]/unit)                   0.3376          -99
      Number at maturity (no/unit)                          3.50          -99
      Tops weight at maturity (kg [dm]/ha)                  3716          -99
      By-product produced (stalk) at maturity (kg[dm]/ha    1770          -99
      Leaf area index, maximum                              3.52          -99
      Harvest index at maturity                            0.524          -99
      Threshing % at maturity                              68.43          -99
      Grain N at maturity (kg/ha)                             75          -99
      Tops N at maturity (kg/ha)                             104          -99
      Stem N at maturity (kg/ha)                              10          -99
      Grain N at maturity (%)                               3.84          -99
      Tops weight at anthesis (kg [dm]/ha)                   885          -99
      Tops N at anthesis (kg/ha)                              28          -99
      Leaf number per stem at maturity                     10.96          -99
      Grain oil at maturity (%)                             2.81          -99
      Canopy height (m)                                     0.93          -99
      Harvest maturity day (dap)                              60          -99
      Emergence day (dap)                                      5          -99


*ENVIRONMENTAL AND STRESS FACTORS

 |-----Development Phase------|--------------------------------------Environment--------------------------------------|-----------------Stress-----------------|
                              |---------------Average--------------|-----Cumulative-----|--------Count of days--------|          (0=Min, 1=Max Stress)         |
                         Time  Temp  Temp  Temp Solar Photop                Evapo    Pot TMIN TMIN TMAX TMAX TMAX RAIN|----Water----|---Nitrogen--|-Phosphorus-|
                         Span   Max   Min  Mean   Rad  [day]    CO2   Rain  Trans     ET   <    <    >    >    >    >   Photo         Photo         Photo
                         days    øC    øC    øC MJ/m2     hr    ppm     mm     mm     mm  0øC  2øC 30øC 32øC 34øC  0mm  synth Growth  synth Growth  synth Growth
----------------------------------------------------------------------------------------------------------------------------------------------------------------
 Emergence -First Flower   24  30.0  19.6  24.8  18.8  12.13  391.2   84.2    0.0    0.0    0    0   12    1    0   14  0.000  0.000  0.000  0.119  0.000  0.000
 First Flower-First Seed   10  30.2  18.7  24.5  19.3  12.17  391.4    2.4    0.0    0.0    0    0    6    0    0    4  0.000  0.000  0.000  0.000  0.000  0.000
 First Seed - Phys. Mat.   12  29.4  19.6  24.5  17.5  12.19  391.4   23.3    0.0    0.0    0    0    6    0    0    5  0.000  0.000  0.000  0.000  0.000  0.000
 Emergence  - Phys. Mat.   46  29.9  19.4  24.6  18.6  12.15  391.3  109.9    0.0    0.0    0    0   24    1    0   23  0.000  0.000  0.000  0.062  0.000  0.000


 Planting to Harvest       74  29.8  19.4  24.6  18.6  12.14  391.3  271.4    0.0    0.0    0    0   37    4    0   42  0.000  0.000  0.000  0.039  0.000  0.000
----------------------------------------------------------------------------------------------------------------------------------------------------------------

--------------------------------------------------------------------------------------------------------------

                  Dry bean YIELD :     1949 kg/ha    [Dry weight] 

**************************************************************************************************************
