*GROWTH ASPECTS OUTPUT FILE

*DSSAT Cropping System Model Ver. 4.6.1.000 -release      JUL 11, 2017; 16:24:51
                                                                                
*RUN   1        : SIM                       CRGRO046 6\000006    1              
 MODEL          : CRGRO046 - Dry bean                                           
 EXPERIMENT     : 6\000006 BN PALMIRA_ANALISIS SENSIBILIDAD                     
 DATA PATH      : D:\B\0\00000                                                  
 TREATMENT  1   : SIM                       CRGRO046                            
  
!                                                                                                                                                                                                                                                    Root Dens. (cm/cm3) by soil depth (cm):
!                                                                                                                                                                                                                                                    0-5    5-15   15-25   25-35   35-50   50-65   65-80   80-99  99-122 122-209
@YEAR DOY   DAS   DAP   L#SD   GSTD   LAID   LWAD   SWAD   GWAD   RWAD   VWAD   CWAD   G#AD    GWGD   HIAD   PWAD   P#AD   WSPD   WSGD   NSTD  PST1A  PST2A   KSTD   EWSD    LN%D   SH%D   HIPD   PWDD   PWTD   SLAD   CHTD   CWID   NWAD   RDPD    RL1D    RL2D    RL3D    RL4D    RL5D    RL6D    RL7D    RL8D    RL9D   RL10D    SNW0C   SNW1C
 1980 106    15     0    0.0      0  0.000      0      0      0      0      0      0      0     0.0  0.000      0      0  0.000  0.000  0.000  0.000  0.000  0.000  0.000    0.00   0.00   0.00      0      0    0.0   0.00   0.00    0.0   0.00    0.00    0.00    0.00    0.00    0.00    0.00    0.00    0.00    0.00    0.00        0       0
 1980 107    16     1    0.0      0  0.000      0      0      0      0      0      0      0     0.0  0.000      0      0  0.000  0.000  0.000  0.000  0.000  0.000  0.000    0.00   0.00   0.00      0      0    0.0   0.00   0.00    0.0   0.00    0.00    0.00    0.00    0.00    0.00    0.00    0.00    0.00    0.00    0.00        0       0
 1980 108    17     2    0.0      0  0.000      0      0      0      0      0      0      0     0.0  0.000      0      0  0.000  0.000  0.000  0.000  0.000  0.000  0.000    0.00   0.00   0.00      0      0    0.0   0.00   0.00    0.0   0.00    0.00    0.00    0.00    0.00    0.00    0.00    0.00    0.00    0.00    0.00        0       0
 1980 109    18     3    0.0      0  0.000      0      0      0      0      0      0      0     0.0  0.000      0      0  0.000  0.000  0.000  0.000  0.000  0.000  0.000    0.00   0.00   0.00      0      0    0.0   0.00   0.00    0.0   0.00    0.00    0.00    0.00    0.00    0.00    0.00    0.00    0.00    0.00    0.00        0       0
 1980 110    19     4    0.0      0  0.000      0      0      0      0      0      0      0     0.0  0.000      0      0  0.000  0.000  0.000  0.000  0.000  0.000  0.000    0.00   0.00   0.00      0      0    0.0   0.00   0.00    0.0   0.00    0.00    0.00    0.00    0.00    0.00    0.00    0.00    0.00    0.00    0.00        0       0
 1980 111    20     5    0.2      0  0.079     31     13      0     43     44     44      0     0.0  0.000      0      0  0.000  0.000  0.000  0.000  0.000  0.000  0.000    3.84   0.00   0.00      0      0  256.8   0.04   0.03    0.0   0.27    0.15    0.15    0.15    0.00    0.00    0.00    0.00    0.00    0.00    0.00        0       1
 1980 112    21     6    0.5      0  0.082     31     14      0     50     45     45      0     0.0  0.000      0      0  0.000  0.000  0.646  0.000  0.000  0.000  0.000    3.78   0.00   0.00      0      0  261.8   0.05   0.03    0.0   0.29    0.18    0.18    0.17    0.01    0.00    0.00    0.00    0.00    0.00    0.00        0       2
 1980 113    22     7    0.8      0  0.085     32     15      0     59     47     47      0     0.0  0.000      0      0  0.000  0.000  0.737  0.000  0.000  0.000  0.000    3.72   0.00   0.00      0      0  265.6   0.07   0.04    0.0   0.32    0.21    0.21    0.20    0.02    0.00    0.00    0.00    0.00    0.00    0.00        0       3
 1980 114    23     8    1.1      0  0.088     33     16      0     67     49     49      0     0.0  0.000      0      0  0.000  0.000  0.546  0.000  0.000  0.000  0.000    3.71   0.00   0.00      0      0  271.5   0.08   0.05    0.0   0.34    0.24    0.24    0.21    0.03    0.00    0.00    0.00    0.00    0.00    0.00        0       4
 1980 115    24     9    1.4      0  0.092     33     18      0     74     51     51      0     0.0  0.000      0      0  0.000  0.000  0.519  0.000  0.000  0.000  0.000    3.68   0.00   0.00      0      0  278.2   0.09   0.05    0.0   0.36    0.26    0.26    0.23    0.05    0.00    0.00    0.00    0.00    0.00    0.00        1       6
 1980 116    25    10    1.7      0  0.098     34     22      0     79     56     56      0     0.0  0.000      0      0  0.000  0.000  0.303  0.000  0.000  0.000  0.000    3.66   0.00   0.00      0      0  285.5   0.10   0.06    0.0   0.38    0.28    0.28    0.24    0.06    0.00    0.00    0.00    0.00    0.00    0.00        1       7
 1980 117    26    11    2.0      0  0.114     37     25      0     82     62     62      0     0.0  0.000      0      0  0.000  0.000  0.204  0.000  0.000  0.000  0.000    3.63   0.00   0.00      0      0  308.2   0.11   0.07    0.0   0.40    0.28    0.28    0.25    0.06    0.00    0.00    0.00    0.00    0.00    0.00        2       9
 1980 118    27    12    2.3      0  0.141     44     28      0     82     72     72      0     0.0  0.000      0      0  0.000  0.000  0.000  0.000  0.000  0.000  0.000    3.61   0.00   0.00      0      0  323.5   0.11   0.08    0.0   0.42    0.29    0.29    0.25    0.06    0.00    0.00    0.00    0.00    0.00    0.00        2      11
 1980 119    28    13    2.6      0  0.168     49     34      0     84     83     83      0     0.0  0.000      0      0  0.000  0.000  0.000  0.000  0.000  0.000  0.000    3.56   0.00   0.00      0      0  339.2   0.12   0.08    0.0   0.44    0.29    0.29    0.25    0.07    0.01    0.00    0.00    0.00    0.00    0.00        3      12
 1980 120    29    14    2.9      0  0.206     57     39      0     85     96     96      0     0.0  0.000      0      0  0.000  0.000  0.000  0.000  0.000  0.000  0.000    3.53   0.00   0.00      0      0  358.4   0.13   0.09    0.0   0.46    0.29    0.29    0.25    0.07    0.01    0.00    0.00    0.00    0.00    0.00        3      14
 1980 121    30    15    3.2      0  0.258     70     42      0     85    113    113      0     0.0  0.000      0      0  0.000  0.000  0.000  0.000  0.000  0.000  0.000    3.53   0.00   0.00      0      0  367.5   0.14   0.10    0.0   0.49    0.29    0.29    0.25    0.07    0.01    0.00    0.00    0.00    0.00    0.00        4      16
 1980 122    31    16    3.5      0  0.313     81     49      0     86    131    131      0     0.0  0.000      0      0  0.000  0.000  0.000  0.000  0.000  0.000  0.000    3.52   0.00   0.00      0      0  385.3   0.15   0.12    0.0   0.51    0.29    0.29    0.25    0.07    0.01    0.00    0.00    0.00    0.00    0.00        5      18
 1980 123    32    17    3.8      0  0.365     93     59      0     88    152    152      0     0.0  0.000      0      0  0.000  0.000  0.000  0.000  0.000  0.000  0.000    3.52   0.00   0.00      0      0  390.6   0.16   0.14    0.0   0.53    0.30    0.30    0.25    0.08    0.02    0.00    0.00    0.00    0.00    0.00        5      19
 1980 124    33    18    4.1      0  0.417    105     72      0     90    177    177      0     0.0  0.000      0      0  0.000  0.000  0.000  0.000  0.000  0.000  0.000    3.51   0.00   0.00      0      0  395.5   0.17   0.16    0.0   0.54    0.30    0.30    0.26    0.08    0.02    0.00    0.00    0.00    0.00    0.00        6      21
 1980 125    34    19    4.4      0  0.493    122     83      0     92    206    206      0     0.0  0.000      0      0  0.000  0.000  0.000  0.000  0.000  0.000  0.000    3.52   0.00   0.00      0      0  402.4   0.19   0.18    0.0   0.56    0.31    0.31    0.26    0.09    0.02    0.00    0.00    0.00    0.00    0.00        8      23
 1980 126    35    20    4.7      0  0.604    148     92      0     93    240    240      0     0.0  0.000      0      0  0.000  0.000  0.000  0.000  0.000  0.000  0.000    3.54   0.00   0.00      0      0  407.6   0.20   0.20    0.0   0.58    0.31    0.31    0.26    0.09    0.03    0.00    0.00    0.00    0.00    0.00        9      25
 1980 127    36    21    5.0      0  0.739    178    102      0     94    280    280      0     0.0  0.000      0      0  0.000  0.000  0.000  0.000  0.000  0.000  0.000    3.55   0.00   0.00      0      0  416.4   0.22   0.22    0.0   0.60    0.31    0.31    0.26    0.09    0.03    0.00    0.00    0.00    0.00    0.00       11      27
 1980 128    37    22    5.3      0  0.869    207    120      0     98    327    327      0     0.0  0.000      0      0  0.000  0.000  0.000  0.000  0.000  0.000  0.000    3.56   0.00   0.00      0      0  419.2   0.24   0.25    0.0   0.62    0.32    0.32    0.27    0.10    0.03    0.01    0.00    0.00    0.00    0.00       13      29
 1980 129    38    23    5.6      0  1.018    241    140      0    102    381    381      0     0.0  0.000      0      0  0.000  0.000  0.000  0.000  0.000  0.000  0.000    3.56   0.00   0.00      0      0  422.5   0.26   0.27    0.0   0.64    0.33    0.33    0.27    0.10    0.04    0.01    0.00    0.00    0.00    0.00       15      31
 1980 130    39    24    5.9      0  1.177    279    164      0    107    442    442      0     0.0  0.000      0      0  0.000  0.000  0.000  0.000  0.000  0.000  0.000    3.57   0.00   0.00      0      0  422.3   0.28   0.29    0.0   0.65    0.34    0.34    0.28    0.11    0.04    0.01    0.00    0.00    0.00    0.00       18      33
 1980 131    40    25    6.2      0  1.369    321    191      0    113    512    512      0     0.0  0.000      0      0  0.000  0.000  0.000  0.000  0.000  0.000  0.000    3.57   0.00   0.00      0      0  426.2   0.31   0.31    0.0   0.67    0.35    0.35    0.29    0.12    0.05    0.02    0.00    0.00    0.00    0.00       21      36
 1980 132    41    26    6.5      0  1.561    366    222      0    120    588    588      0     0.0  0.000      0      0  0.000  0.000  0.000  0.000  0.000  0.000  0.000    3.59   0.00   0.00      0      0  426.5   0.34   0.33    0.0   0.69    0.37    0.37    0.30    0.13    0.06    0.02    0.00    0.00    0.00    0.00       29      38
 1980 133    42    27    6.8      0  1.746    407    255      0    128    662    662      0     0.0  0.000      0      0  0.000  0.000  0.000  0.000  0.000  0.000  0.000    3.65   0.00   0.00      0      0  428.9   0.37   0.36    0.0   0.71    0.39    0.39    0.31    0.14    0.06    0.03    0.00    0.00    0.00    0.00       47      41
 1980 134    43    28    7.1      0  1.953    441    287      0    135    728    728      0     0.0  0.000      0      0  0.000  0.000  0.000  0.000  0.000  0.000  0.000    3.70   0.00   0.00      0      0  443.1   0.40   0.38    0.0   0.72    0.40    0.40    0.33    0.15    0.07    0.03    0.00    0.00    0.00    0.00       67      44
 1980 135    44    29    7.4      1  2.152    480    327      0    144    807    807      0     0.0  0.000      0      0  0.000  0.000  0.000  0.000  0.000  0.000  0.000    3.75   0.00   0.00      0      0  448.6   0.43   0.40    0.0   0.74    0.42    0.42    0.34    0.16    0.08    0.04    0.01    0.00    0.00    0.00       90      46
 1980 136    45    30    7.7      1  2.322    517    371      0    153    888    888      0     0.0  0.000      0      0  0.000  0.000  0.000  0.000  0.000  0.000  0.000    3.81   0.00   0.00      0      0  448.9   0.46   0.42    0.0   0.76    0.45    0.45    0.36    0.17    0.09    0.04    0.01    0.00    0.00    0.00      117      49
 1980 137    46    31    7.9      1  2.455    558    422      0    163    979    979      0     0.0  0.000      0      0  0.000  0.000  0.000  0.000  0.000  0.000  0.000    3.87   0.00   0.00      0      0  440.3   0.49   0.44    0.0   0.77    0.47    0.47    0.37    0.18    0.10    0.05    0.01    0.00    0.00    0.00      149      53
 1980 138    47    32    8.2      3  2.616    607    481      0    174   1088   1088      0     0.0  0.000      0      0  0.000  0.000  0.000  0.000  0.000  0.000  0.000    3.89   0.00   0.00      0      0  430.7   0.52   0.46    0.0   0.79    0.49    0.49    0.39    0.20    0.11    0.05    0.02    0.00    0.00    0.00      170      56
 1980 139    48    33    8.5      3  2.773    659    544      0    185   1203   1206      0     0.0  0.000      3      4  0.000  0.000  0.000  0.000  0.000  0.000  0.000    3.89   0.00   0.00      0      3  420.9   0.55   0.48    0.0   0.81    0.52    0.52    0.41    0.21    0.12    0.06    0.02    0.00    0.00    0.00      190      60
 1980 140    49    34    8.8      3  2.905    706    607      0    195   1314   1330      0     0.0  0.000     16     15  0.000  0.000  0.000  0.000  0.000  0.000  0.000    3.89   0.00   0.01      0     16  411.2   0.58   0.50    0.0   0.82    0.54    0.54    0.43    0.22    0.13    0.06    0.03    0.00    0.00    0.00      210      64
 1980 141    50    35    9.1      3  3.006    753    673      0    205   1425   1464      0     0.0  0.000     38     27  0.000  0.000  0.000  0.000  0.000  0.000  0.000    3.88   0.00   0.03      0     38  399.4   0.61   0.52    0.0   0.84    0.56    0.56    0.44    0.23    0.14    0.07    0.03    0.00    0.00    0.00      229      68
 1980 142    51    36    9.5      3  3.091    789    732      0    213   1521   1592      0     0.0  0.000     71     39  0.000  0.000  0.000  0.000  0.000  0.000  0.000    3.87   0.00   0.04      0     71  391.7   0.64   0.54    0.0   0.86    0.58    0.58    0.45    0.24    0.14    0.07    0.04    0.00    0.00    0.00      249      72
 1980 143    52    37    9.8      3  3.161    826    792      0    221   1617   1731      0     0.0  0.000    114     52  0.000  0.000  0.000  0.000  0.000  0.000  0.000    3.85   0.00   0.07      0    114  382.9   0.68   0.55    0.0   0.87    0.60    0.60    0.47    0.25    0.15    0.08    0.04    0.00    0.00    0.00      265      77
 1980 144    53    38   10.1      3  3.208    857    849      0    227   1706   1874      0     0.0  0.000    168     65  0.000  0.000  0.000  0.000  0.000  0.000  0.000    3.83   0.00   0.09      0    168  374.2   0.72   0.57    0.0   0.89    0.61    0.61    0.48    0.26    0.16    0.08    0.04    0.00    0.00    0.00      281      82
 1980 145    54    39   10.4      5  3.237    883    901      0    232   1785   2016     14     0.0  0.000    232     78  0.000  0.000  0.000  0.000  0.000  0.000  0.000    3.81   0.00   0.11      0    232  366.4   0.75   0.58    0.0   0.91    0.62    0.62    0.48    0.27    0.16    0.08    0.05    0.01    0.00    0.00      296      87
 1980 146    55    40   10.7      5  3.254    907    951      5    236   1858   2165     50    10.1  0.002    307     92  0.000  0.000  0.000  0.000  0.000  0.000  0.000    3.78   1.65   0.14      0    307  358.7   0.79   0.59    0.0   0.92    0.63    0.63    0.49    0.27    0.17    0.09    0.05    0.01    0.00    0.00      313      92
 1980 147    56    41   11.0      5  3.246    918    982     25    237   1900   2307     90    27.6  0.011    407    105  0.000  0.000  0.000  0.000  0.000  0.000  0.000    3.76   6.08   0.18      0    407  353.7   0.82   0.60    0.0   0.94    0.63    0.63    0.49    0.27    0.17    0.09    0.05    0.01    0.00    0.00      329      97
 1980 148    57    42   11.0      5  3.221    920   1003     60    237   1923   2447    130    45.9  0.024    524    118  0.000  0.000  0.000  0.000  0.000  0.000  0.000    3.74  11.35   0.21      0    524  350.2   0.86   0.60    0.0   0.96    0.63    0.63    0.49    0.27    0.17    0.09    0.05    0.01    0.00    0.00      345     102
 1980 149    58    43   11.0      5  3.182    915   1015    109    235   1931   2585    172    63.4  0.042    655    132  0.000  0.000  0.000  0.000  0.000  0.000  0.000    3.72  16.65   0.25      0    655  347.7   0.90   0.60    0.0   0.97    0.62    0.62    0.48    0.27    0.17    0.09    0.05    0.01    0.00    0.00      363     107
 1980 150    59    44   11.0      5  3.124    901   1016    175    231   1917   2720    215    81.2  0.064    803    145  0.000  0.000  0.000  0.000  0.000  0.000  0.000    3.67  21.80   0.30      0    803  346.6   0.93   0.60    0.0   0.99    0.61    0.61    0.47    0.27    0.16    0.09    0.05    0.01    0.00    0.00      382     112
 1980 151    60    45   11.0      5  3.055    879   1001    260    225   1880   2842    261    99.6  0.091    962    158  0.000  0.000  0.000  0.000  0.000  0.000  0.000    3.62  27.01   0.34      0    962  347.7   0.93   0.60    0.0   0.99    0.60    0.60    0.46    0.26    0.16    0.08    0.05    0.01    0.00    0.00      402     117
 1980 152    61    46   11.0      5  2.984    855    987    360    220   1842   2975    307   117.1  0.121   1133    170  0.000  0.000  0.000  0.000  0.000  0.000  0.000    3.56  31.76   0.38      0   1133  348.9   0.93   0.60    0.0   0.99    0.58    0.58    0.45    0.25    0.16    0.08    0.05    0.01    0.00    0.00      423     122
 1980 153    62    47   11.0      5  2.911    832    972    481    215   1804   3099    307   156.6  0.155   1295    184  0.000  0.000  0.000  0.000  0.000  0.000  0.000    3.49  37.16   0.42      0   1295  350.0   0.93   0.60    0.0   0.99    0.57    0.57    0.45    0.25    0.15    0.08    0.05    0.01    0.00    0.00      440     126
 1980 154    63    48   11.0      5  2.847    811    959    599    211   1770   3212    353   169.6  0.187   1442    194  0.000  0.000  0.000  0.000  0.000  0.000  0.000    3.43  41.55   0.45      0   1442  351.1   0.93   0.60    0.0   0.99    0.56    0.56    0.44    0.24    0.15    0.08    0.05    0.01    0.00    0.00      458     130
 1980 155    64    49   11.0      5  2.768    786    944    735    207   1730   3344    401   183.1  0.220   1615    200  0.000  0.000  0.000  0.000  0.000  0.000  0.000    3.35  45.50   0.48      0   1615  352.3   0.93   0.60    0.0   0.99    0.55    0.55    0.43    0.24    0.15    0.08    0.04    0.01    0.00    0.00      480     134
 1980 156    65    50   11.0      5  2.682    758    928    889    202   1687   3473    448   198.5  0.256   1786    205  0.000  0.000  0.000  0.000  0.000  0.000  0.000    3.26  49.76   0.51      0   1786  353.6   0.93   0.60    0.0   0.99    0.54    0.54    0.42    0.23    0.15    0.08    0.04    0.01    0.00    0.00      504     139
 1980 157    66    51   11.0      5  2.595    731    912   1060    197   1643   3600    491   215.9  0.294   1956    206  0.000  0.000  0.000  0.000  0.000  0.000  0.000    3.16  54.17   0.54      0   1956  354.9   0.93   0.60    0.0   1.01    0.53    0.53    0.41    0.23    0.14    0.07    0.04    0.01    0.00    0.00      532     143
 1980 158    67    52   11.0      7  2.510    705    899   1241    192   1604   3711    514   241.4  0.334   2107    199  0.000  0.000  0.000  0.000  0.000  0.000  0.000    3.05  58.88   0.57      0   2107  356.0   0.93   0.60    0.0   1.01    0.52    0.52    0.40    0.22    0.14    0.07    0.04    0.01    0.00    0.00      571     147
 1980 159    68    53   11.0      7  1.854    519    839   1416    188   1358   3627    517   274.1  0.390   2269    186  0.000  0.000  0.000  0.000  0.000  0.000  0.000    2.86  62.40   0.63      0   2269  357.0   0.93   0.60    0.0   1.01    0.51    0.51    0.39    0.22    0.14    0.07    0.04    0.01    0.00    0.00      804     151
 1980 160    69    54   11.0      7  1.371    383    794   1557    183   1177   3579    517   301.4  0.435   2402    173  0.000  0.000  0.000  0.000  0.000  0.000  0.000    2.68  64.82   0.67      0   2402  357.9   0.93   0.60    0.0   1.01    0.49    0.49    0.38    0.21    0.13    0.07    0.04    0.01    0.00    0.00      973     155
 1980 161    70    55   11.0      7  1.015    283    758   1667    179   1041   3545    517   322.7  0.470   2504    163  0.000  0.000  0.000  0.000  0.000  0.000  0.000    2.52  66.57   0.71      0   2504  359.3   0.93   0.60    0.0   1.01    0.48    0.48    0.38    0.21    0.13    0.07    0.04    0.01    0.00    0.00     1098     159
 1980 162    71    56   11.0      7  0.754    209    732   1748    175    941   3519    517   338.4  0.497   2578    151  0.000  0.000  0.000  0.000  0.000  0.000  0.000    2.38  67.79   0.73      0   2578  360.6   0.93   0.60    0.0   1.01    0.47    0.47    0.37    0.21    0.13    0.07    0.04    0.01    0.00    0.00     1190     163
 1980 163    72    57   11.0      7  0.560    155    711   1810    171    865   3499    517   350.5  0.517   2634    148  0.000  0.000  0.000  0.000  0.000  0.000  0.000    2.26  68.73   0.75      0   2634  361.9   0.93   0.60    0.0   1.01    0.46    0.46    0.36    0.20    0.13    0.07    0.04    0.01    0.00    0.00     1257     167
 1980 164    73    58   11.0      7  0.416    115    694   1855    168    809   3481    517   359.1  0.533   2673    148  0.000  0.000  0.000  0.000  0.000  0.000  0.000    2.14  69.41   0.77      0   2673  363.3   0.93   0.60    0.0   1.01    0.45    0.45    0.35    0.20    0.12    0.06    0.04    0.01    0.00    0.00     1308     170
 1980 165    74    59   11.0      7  0.310     85    681   1887    164    766   3465    517   365.3  0.544   2699    148  0.000  0.000  0.000  0.000  0.000  0.000  0.000    2.05  69.90   0.78      0   2699  364.5   0.93   0.60    0.0   1.01    0.45    0.45    0.35    0.19    0.12    0.06    0.04    0.01    0.00    0.00     1345     173
 1980 166    75    60   11.0      7  0.231     63    671   1909    161    734   3451    517   369.5  0.553   2716    148  0.000  0.000  0.000  0.000  0.000  0.000  0.000    1.97  70.27   0.79      0   2716  365.7   0.93   0.60    0.0   1.01    0.44    0.44    0.34    0.19    0.12    0.06    0.04    0.01    0.00    0.00     1373     177
 1980 167    76    61   11.0      8  0.173     47    664   1921    157    711   3437    517   372.0  0.559   2726    148  0.000  0.000  0.000  0.000  0.000  0.000  0.000    1.93  70.48   0.79      0   2726  366.8   0.93   0.60    0.0   1.01    0.43    0.43    0.33    0.19    0.12    0.06    0.03    0.01    0.00    0.00     1393     180

*DSSAT Cropping System Model Ver. 4.6.1.000 -release      JUL 11, 2017; 16:24:51
                                                                                
*RUN   2        : SIM                       CRGRO046 6\000006    1              
 MODEL          : CRGRO046 - Dry bean                                           
 EXPERIMENT     : 6\000006 BN PALMIRA_ANALISIS SENSIBILIDAD                     
 DATA PATH      : D:\B\0\00000                                                  
 TREATMENT  1   : SIM                       CRGRO046                            
  
!                                                                                                                                                                                                                                                    Root Dens. (cm/cm3) by soil depth (cm):
!                                                                                                                                                                                                                                                    0-5    5-15   15-25   25-35   35-50   50-65   65-80   80-99  99-122 122-209
@YEAR DOY   DAS   DAP   L#SD   GSTD   LAID   LWAD   SWAD   GWAD   RWAD   VWAD   CWAD   G#AD    GWGD   HIAD   PWAD   P#AD   WSPD   WSGD   NSTD  PST1A  PST2A   KSTD   EWSD    LN%D   SH%D   HIPD   PWDD   PWTD   SLAD   CHTD   CWID   NWAD   RDPD    RL1D    RL2D    RL3D    RL4D    RL5D    RL6D    RL7D    RL8D    RL9D   RL10D    SNW0C   SNW1C
 1981 106    15     0    0.0      0  0.000      0      0      0      0      0      0      0     0.0  0.000      0      0  0.000  0.000  0.000  0.000  0.000  0.000  0.000    0.00   0.00   0.00      0      0    0.0   0.00   0.00    0.0   0.00    0.00    0.00    0.00    0.00    0.00    0.00    0.00    0.00    0.00    0.00        0       0
 1981 107    16     1    0.0      0  0.000      0      0      0      0      0      0      0     0.0  0.000      0      0  0.000  0.000  0.000  0.000  0.000  0.000  0.000    0.00   0.00   0.00      0      0    0.0   0.00   0.00    0.0   0.00    0.00    0.00    0.00    0.00    0.00    0.00    0.00    0.00    0.00    0.00        0       0
 1981 108    17     2    0.0      0  0.000      0      0      0      0      0      0      0     0.0  0.000      0      0  0.000  0.000  0.000  0.000  0.000  0.000  0.000    0.00   0.00   0.00      0      0    0.0   0.00   0.00    0.0   0.00    0.00    0.00    0.00    0.00    0.00    0.00    0.00    0.00    0.00    0.00        0       0
 1981 109    18     3    0.0      0  0.000      0      0      0      0      0      0      0     0.0  0.000      0      0  0.000  0.000  0.000  0.000  0.000  0.000  0.000    0.00   0.00   0.00      0      0    0.0   0.00   0.00    0.0   0.00    0.00    0.00    0.00    0.00    0.00    0.00    0.00    0.00    0.00    0.00        0       0
 1981 110    19     4    0.0      0  0.000      0      0      0      0      0      0      0     0.0  0.000      0      0  0.000  0.000  0.000  0.000  0.000  0.000  0.000    0.00   0.00   0.00      0      0    0.0   0.00   0.00    0.0   0.00    0.00    0.00    0.00    0.00    0.00    0.00    0.00    0.00    0.00    0.00        0       0
 1981 111    20     5    0.2      0  0.079     31     13      0     43     44     44      0     0.0  0.000      0      0  0.000  0.000  0.000  0.000  0.000  0.000  0.000    3.84   0.00   0.00      0      0  256.6   0.04   0.03    0.0   0.27    0.15    0.15    0.15    0.00    0.00    0.00    0.00    0.00    0.00    0.00        0       1
 1981 112    21     6    0.5      0  0.082     31     14      0     51     45     45      0     0.0  0.000      0      0  0.000  0.000  0.653  0.000  0.000  0.000  0.000    3.78   0.00   0.00      0      0  261.6   0.05   0.03    0.0   0.29    0.18    0.18    0.18    0.01    0.00    0.00    0.00    0.00    0.00    0.00        0       2
 1981 113    22     7    0.8      0  0.084     32     15      0     59     46     46      0     0.0  0.000      0      0  0.000  0.000  0.742  0.000  0.000  0.000  0.000    3.73   0.00   0.00      0      0  265.1   0.06   0.04    0.0   0.31    0.21    0.21    0.20    0.02    0.00    0.00    0.00    0.00    0.00    0.00        0       3
 1981 114    23     8    1.1      0  0.087     32     16      0     67     48     48      0     0.0  0.000      0      0  0.000  0.000  0.576  0.000  0.000  0.000  0.000    3.71   0.00   0.00      0      0  270.8   0.07   0.04    0.0   0.33    0.24    0.24    0.22    0.03    0.00    0.00    0.00    0.00    0.00    0.00        0       4
 1981 115    24     9    1.3      0  0.091     33     18      0     74     51     51      0     0.0  0.000      0      0  0.000  0.000  0.498  0.000  0.000  0.000  0.000    3.68   0.00   0.00      0      0  276.8   0.08   0.05    0.0   0.36    0.26    0.26    0.23    0.04    0.00    0.00    0.00    0.00    0.00    0.00        1       6
 1981 116    25    10    1.7      0  0.096     34     21      0     80     54     54      0     0.0  0.000      0      0  0.000  0.000  0.437  0.000  0.000  0.000  0.000    3.66   0.00   0.00      0      0  285.0   0.09   0.06    0.0   0.38    0.28    0.28    0.25    0.06    0.00    0.00    0.00    0.00    0.00    0.00        1       7
 1981 117    26    11    1.9      0  0.107     35     23      0     84     59     59      0     0.0  0.000      0      0  0.000  0.000  0.290  0.000  0.000  0.000  0.000    3.64   0.00   0.00      0      0  303.6   0.10   0.07    0.0   0.40    0.29    0.29    0.25    0.06    0.00    0.00    0.00    0.00    0.00    0.00        2       9
 1981 118    27    12    2.2      0  0.129     41     26      0     84     67     67      0     0.0  0.000      0      0  0.000  0.000  0.000  0.000  0.000  0.000  0.000    3.64   0.00   0.00      0      0  314.7   0.11   0.07    0.0   0.42    0.29    0.29    0.25    0.06    0.00    0.00    0.00    0.00    0.00    0.00        2      10
 1981 119    28    13    2.5      0  0.157     47     31      0     85     78     78      0     0.0  0.000      0      0  0.000  0.000  0.000  0.000  0.000  0.000  0.000    3.58   0.00   0.00      0      0  332.8   0.12   0.08    0.0   0.44    0.30    0.30    0.25    0.07    0.01    0.00    0.00    0.00    0.00    0.00        2      12
 1981 120    29    14    2.8      0  0.183     53     37      0     87     90     90      0     0.0  0.000      0      0  0.000  0.000  0.000  0.000  0.000  0.000  0.000    3.55   0.00   0.00      0      0  347.2   0.12   0.09    0.0   0.46    0.30    0.30    0.26    0.07    0.01    0.00    0.00    0.00    0.00    0.00        3      14
 1981 121    30    15    3.1      0  0.236     64     40      0     87    104    104      0     0.0  0.000      0      0  0.000  0.000  0.000  0.000  0.000  0.000  0.000    3.54   0.00   0.00      0      0  367.4   0.13   0.10    0.0   0.48    0.30    0.30    0.26    0.07    0.01    0.00    0.00    0.00    0.00    0.00        4      16
 1981 122    31    16    3.4      0  0.290     76     46      0     87    122    122      0     0.0  0.000      0      0  0.000  0.000  0.000  0.000  0.000  0.000  0.000    3.53   0.00   0.00      0      0  379.3   0.14   0.11    0.0   0.50    0.30    0.30    0.26    0.07    0.01    0.00    0.00    0.00    0.00    0.00        4      17
 1981 123    32    17    3.7      0  0.343     88     54      0     89    142    142      0     0.0  0.000      0      0  0.000  0.000  0.000  0.000  0.000  0.000  0.000    3.52   0.00   0.00      0      0  388.7   0.15   0.13    0.0   0.52    0.30    0.30    0.26    0.08    0.02    0.00    0.00    0.00    0.00    0.00        5      19
 1981 124    33    18    3.9      0  0.394     99     66      0     91    165    165      0     0.0  0.000      0      0  0.000  0.000  0.000  0.000  0.000  0.000  0.000    3.51   0.00   0.00      0      0  397.7   0.17   0.15    0.0   0.54    0.31    0.31    0.26    0.08    0.02    0.00    0.00    0.00    0.00    0.00        6      21
 1981 125    34    19    4.2      0  0.445    110     80      0     94    190    190      0     0.0  0.000      0      0  0.000  0.000  0.000  0.000  0.000  0.000  0.000    3.51   0.00   0.00      0      0  403.5   0.18   0.17    0.0   0.56    0.31    0.31    0.26    0.09    0.02    0.00    0.00    0.00    0.00    0.00        7      23
 1981 126    35    20    4.5      0  0.548    131     87      0     94    218    218      0     0.0  0.000      0      0  0.000  0.000  0.000  0.000  0.000  0.000  0.000    3.53   0.00   0.00      0      0  417.2   0.19   0.19    0.0   0.57    0.31    0.31    0.26    0.09    0.03    0.00    0.00    0.00    0.00    0.00        8      25
 1981 127    36    21    4.8      0  0.670    159     96      0     95    254    254      0     0.0  0.000      0      0  0.000  0.000  0.000  0.000  0.000  0.000  0.000    3.55   0.00   0.00      0      0  421.8   0.21   0.21    0.0   0.59    0.32    0.32    0.26    0.09    0.03    0.00    0.00    0.00    0.00    0.00       10      27
 1981 128    37    22    5.0      0  0.767    181    108      0     98    289    289      0     0.0  0.000      0      0  0.000  0.000  0.000  0.000  0.000  0.000  0.000    3.55   0.00   0.00      0      0  423.7   0.22   0.23    0.0   0.61    0.32    0.32    0.27    0.09    0.03    0.00    0.00    0.00    0.00    0.00       11      28
 1981 129    38    23    5.3      0  0.893    210    126      0    101    336    336      0     0.0  0.000      0      0  0.000  0.000  0.000  0.000  0.000  0.000  0.000    3.56   0.00   0.00      0      0  424.4   0.24   0.24    0.0   0.62    0.33    0.33    0.27    0.10    0.04    0.01    0.00    0.00    0.00    0.00       13      30
 1981 130    39    24    5.6      0  1.045    244    146      0    105    389    389      0     0.0  0.000      0      0  0.000  0.000  0.000  0.000  0.000  0.000  0.000    3.56   0.00   0.00      0      0  429.2   0.26   0.26    0.0   0.64    0.34    0.34    0.28    0.10    0.04    0.01    0.00    0.00    0.00    0.00       16      32
 1981 131    40    25    5.9      0  1.215    281    169      0    110    450    450      0     0.0  0.000      0      0  0.000  0.000  0.000  0.000  0.000  0.000  0.000    3.57   0.00   0.00      0      0  432.4   0.28   0.29    0.0   0.66    0.35    0.35    0.29    0.11    0.05    0.01    0.00    0.00    0.00    0.00       18      35
 1981 132    41    26    6.2      0  1.407    324    196      0    116    520    520      0     0.0  0.000      0      0  0.000  0.000  0.000  0.000  0.000  0.000  0.000    3.57   0.00   0.00      0      0  434.7   0.31   0.31    0.0   0.67    0.36    0.36    0.30    0.12    0.05    0.02    0.00    0.00    0.00    0.00       22      37
 1981 133    42    27    6.5      0  1.611    368    227      0    123    595    595      0     0.0  0.000      0      0  0.000  0.000  0.000  0.000  0.000  0.000  0.000    3.59   0.00   0.00      0      0  437.2   0.33   0.33    0.0   0.69    0.38    0.38    0.31    0.13    0.06    0.02    0.00    0.00    0.00    0.00       29      39
 1981 134    43    28    6.8      0  1.802    409    260      0    131    669    669      0     0.0  0.000      0      0  0.000  0.000  0.000  0.000  0.000  0.000  0.000    3.64   0.00   0.00      0      0  440.4   0.36   0.35    0.0   0.71    0.40    0.40    0.32    0.14    0.07    0.03    0.00    0.00    0.00    0.00       46      42
 1981 135    44    29    7.1      0  1.980    452    298      0    139    749    749      0     0.0  0.000      0      0  0.000  0.000  0.000  0.000  0.000  0.000  0.000    3.70   0.00   0.00      0      0  438.6   0.39   0.37    0.0   0.72    0.42    0.42    0.34    0.15    0.08    0.03    0.00    0.00    0.00    0.00       66      45
 1981 136    45    30    7.3      1  2.177    487    336      0    148    823    823      0     0.0  0.000      0      0  0.000  0.000  0.000  0.000  0.000  0.000  0.000    3.75   0.00   0.00      0      0  446.8   0.42   0.39    0.0   0.74    0.44    0.44    0.35    0.16    0.08    0.04    0.01    0.00    0.00    0.00       90      48
 1981 137    46    31    7.6      1  2.341    527    382      0    157    910    910      0     0.0  0.000      0      0  0.000  0.000  0.000  0.000  0.000  0.000  0.000    3.81   0.00   0.00      0      0  443.8   0.45   0.41    0.0   0.76    0.46    0.46    0.37    0.17    0.09    0.04    0.01    0.00    0.00    0.00      117      51
 1981 138    47    32    7.9      1  2.474    567    433      0    168   1000   1000      0     0.0  0.000      0      0  0.000  0.000  0.000  0.000  0.000  0.000  0.000    3.88   0.00   0.00      0      0  436.6   0.48   0.44    0.0   0.77    0.48    0.48    0.38    0.19    0.10    0.05    0.01    0.00    0.00    0.00      150      54
 1981 139    48    33    8.2      3  2.626    616    493      0    179   1109   1109      0     0.0  0.000      0      0  0.000  0.000  0.000  0.000  0.000  0.000  0.000    3.89   0.00   0.00      0      0  426.3   0.51   0.45    0.0   0.79    0.51    0.51    0.40    0.20    0.11    0.05    0.02    0.00    0.00    0.00      173      57
 1981 140    49    34    8.5      3  2.777    668    558      0    190   1226   1229      0     0.0  0.000      3      4  0.000  0.000  0.000  0.000  0.000  0.000  0.000    3.89   0.00   0.00      0      3  415.7   0.54   0.47    0.0   0.81    0.53    0.53    0.42    0.21    0.12    0.06    0.02    0.00    0.00    0.00      193      61
 1981 141    50    35    8.8      3  2.907    715    622      0    200   1337   1353      0     0.0  0.000     16     15  0.000  0.000  0.000  0.000  0.000  0.000  0.000    3.89   0.00   0.01      0     16  406.3   0.57   0.49    0.0   0.82    0.55    0.55    0.44    0.23    0.13    0.06    0.03    0.00    0.00    0.00      213      65
 1981 142    51    36    9.1      3  3.012    761    687      0    210   1448   1486      0     0.0  0.000     38     27  0.000  0.000  0.000  0.000  0.000  0.000  0.000    3.88   0.00   0.03      0     38  396.1   0.60   0.51    0.0   0.84    0.57    0.57    0.45    0.24    0.14    0.07    0.03    0.00    0.00    0.00      232      70
 1981 143    52    37    9.4      3  3.093    797    746      0    217   1543   1615      0     0.0  0.000     71     39  0.000  0.000  0.000  0.000  0.000  0.000  0.000    3.87   0.00   0.04      0     71  387.8   0.64   0.53    0.0   0.86    0.59    0.59    0.46    0.25    0.15    0.07    0.04    0.00    0.00    0.00      250      74
 1981 144    53    38    9.7      3  3.155    832    804      0    225   1636   1751      0     0.0  0.000    115     52  0.000  0.000  0.000  0.000  0.000  0.000  0.000    3.85   0.00   0.07      0    115  379.1   0.67   0.55    0.0   0.87    0.61    0.61    0.47    0.26    0.15    0.08    0.04    0.00    0.00    0.00      266      79
 1981 145    54    39   10.0      3  3.197    861    858      0    231   1719   1890      0     0.0  0.000    170     65  0.000  0.000  0.000  0.000  0.000  0.000  0.000    3.83   0.00   0.09      0    170  371.1   0.70   0.56    0.0   0.89    0.62    0.62    0.48    0.26    0.16    0.08    0.04    0.00    0.00    0.00      281      83
 1981 146    55    40   10.3      5  3.224    886    907      0    235   1793   2030      0     0.0  0.000    237     79  0.000  0.000  0.000  0.000  0.000  0.000  0.000    3.81   0.00   0.12      0    237  363.9   0.74   0.57    0.0   0.90    0.63    0.63    0.49    0.27    0.16    0.08    0.05    0.01    0.00    0.00      295      88
 1981 147    56    41   10.6      5  3.239    907    952      0    239   1859   2172     14     0.0  0.000    314     93  0.000  0.000  0.000  0.000  0.000  0.000  0.000    3.78   0.00   0.14      0    314  357.2   0.77   0.59    0.0   0.92    0.64    0.64    0.49    0.27    0.17    0.09    0.05    0.01    0.00    0.00      307      93
 1981 148    57    42   10.9      5  3.239    924    993      5    241   1917   2318     51    10.6  0.002    401    106  0.000  0.000  0.000  0.000  0.000  0.000  0.000    3.75   1.35   0.17      0    401  350.7   0.81   0.60    0.0   0.94    0.64    0.64    0.50    0.28    0.17    0.09    0.05    0.01    0.00    0.00      322      98
 1981 149    58    43   10.9      5  3.219    930   1021     25    242   1951   2458     91    28.0  0.010    507    121  0.000  0.000  0.000  0.000  0.000  0.000  0.000    3.73   5.01   0.21      0    507  346.3   0.84   0.60    0.0   0.95    0.64    0.64    0.50    0.28    0.17    0.09    0.05    0.01    0.00    0.00      337     103
 1981 150    59    44   10.9      5  3.187    930   1041     61    241   1971   2600    132    45.8  0.023    629    135  0.000  0.000  0.000  0.000  0.000  0.000  0.000    3.71   9.65   0.24      0    629  342.8   0.87   0.60    0.0   0.97    0.64    0.64    0.49    0.28    0.17    0.09    0.05    0.01    0.00    0.00      352     108
 1981 151    60    45   10.9      5  3.134    920   1047    112    238   1967   2735    176    63.7  0.041    768    149  0.000  0.000  0.000  0.000  0.000  0.000  0.000    3.66  14.62   0.28      0    768  340.8   0.91   0.60    0.0   0.98    0.63    0.63    0.49    0.27    0.17    0.09    0.05    0.01    0.00    0.00      369     113
 1981 152    61    46   10.9      5  3.066    897   1033    182    233   1930   2857    222    81.9  0.064    927    162  0.000  0.000  0.000  0.000  0.000  0.000  0.000    3.60  19.63   0.32      0    927  341.8   0.91   0.60    0.0   1.00    0.62    0.62    0.48    0.27    0.17    0.09    0.05    0.01    0.00    0.00      388     118
 1981 153    62    47   10.9      5  2.994    873   1018    269    227   1891   2984    269   100.1  0.090   1093    176  0.000  0.000  0.000  0.000  0.000  0.000  0.000    3.54  24.59   0.37      0   1093  343.0   0.91   0.60    0.0   1.00    0.60    0.60    0.47    0.26    0.16    0.08    0.05    0.01    0.00    0.00      407     123
 1981 154    63    48   10.9      5  2.919    848   1002    371    222   1851   3116    316   117.5  0.119   1266    189  0.000  0.000  0.000  0.000  0.000  0.000  0.000    3.47  29.32   0.41      0   1266  344.1   0.91   0.60    0.0   1.02    0.59    0.59    0.46    0.26    0.16    0.08    0.05    0.01    0.00    0.00      428     128
 1981 155    64    49   10.9      5  2.840    822    986    492    217   1808   3247    364   135.4  0.152   1439    200  0.000  0.000  0.000  0.000  0.000  0.000  0.000    3.40  34.20   0.44      0   1439  345.4   0.91   0.60    0.0   1.02    0.58    0.58    0.45    0.25    0.16    0.08    0.05    0.01    0.00    0.00      450     132
 1981 156    65    50   10.9      5  2.754    795    970    631    211   1764   3375    413   153.0  0.187   1611    207  0.000  0.000  0.000  0.000  0.000  0.000  0.000    3.31  39.19   0.48      0   1611  346.6   0.91   0.60    0.0   1.03    0.57    0.57    0.44    0.25    0.15    0.08    0.05    0.01    0.00    0.00      474     137
 1981 157    66    51   10.9      5  2.664    766    953    789    206   1719   3501    460   171.4  0.225   1782    212  0.000  0.000  0.000  0.000  0.000  0.000  0.000    3.21  44.28   0.51      0   1782  347.9   0.91   0.60    0.0   1.05    0.55    0.55    0.43    0.24    0.15    0.08    0.04    0.01    0.00    0.00      499     142
 1981 158    67    52   10.9      7  2.578    739    938    961    202   1676   3607    552   174.1  0.266   1931    212  0.000  0.000  0.000  0.000  0.000  0.000  0.000    3.11  49.78   0.54      0   1931  349.0   0.91   0.60    0.0   1.05    0.54    0.54    0.42    0.24    0.15    0.08    0.04    0.01    0.00    0.00      531     146
 1981 159    68    53   10.9      7  1.904    543    873   1133    197   1416   3508    552   205.2  0.323   2092    212  0.000  0.000  0.000  0.000  0.000  0.000  0.000    2.92  54.16   0.60      0   2092  350.5   0.91   0.60    0.0   1.05    0.53    0.53    0.41    0.23    0.14    0.07    0.04    0.01    0.00    0.00      771     150
 1981 160    69    54   10.9      7  1.410    401    825   1273    193   1226   3434    564   225.8  0.371   2208    202  0.000  0.000  0.000  0.000  0.000  0.000  0.000    2.76  57.66   0.64      0   2208  351.8   0.91   0.60    0.0   1.05    0.52    0.52    0.40    0.23    0.14    0.07    0.04    0.01    0.00    0.00      962     154
 1981 161    70    55   10.9      7  1.044    296    788   1389    189   1083   3399    564   246.4  0.409   2315    189  0.000  0.000  0.000  0.000  0.000  0.000  0.000    2.61  60.00   0.68      0   2315  353.1   0.91   0.60    0.0   1.05    0.51    0.51    0.40    0.22    0.14    0.07    0.04    0.01    0.00    0.00     1092     158
 1981 162    71    56   10.9      7  0.774    218    759   1480    184    977   3375    564   262.5  0.439   2397    177  0.000  0.000  0.000  0.000  0.000  0.000  0.000    2.46  61.73   0.71      0   2397  354.5   0.91   0.60    0.0   1.05    0.50    0.50    0.39    0.22    0.13    0.07    0.04    0.01    0.00    0.00     1188     162
 1981 163    72    57   10.9      7  0.575    161    736   1543    180    898   3351    564   273.7  0.461   2453    169  0.000  0.000  0.000  0.000  0.000  0.000  0.000    2.32  62.91   0.73      0   2453  355.9   0.91   0.60    0.0   1.05    0.49    0.49    0.38    0.21    0.13    0.07    0.04    0.01    0.00    0.00     1259     165
 1981 164    73    58   10.9      7  0.427    119    719   1594    176    838   3335    564   282.7  0.478   2496    164  0.000  0.000  0.000  0.000  0.000  0.000  0.000    2.20  63.86   0.75      0   2496  357.2   0.91   0.60    0.0   1.05    0.48    0.48    0.37    0.21    0.13    0.07    0.04    0.01    0.00    0.00     1312     169
 1981 165    74    59   10.9      7  0.317     89    705   1631    172    793   3319    564   289.2  0.491   2526    161  0.000  0.000  0.000  0.000  0.000  0.000  0.000    2.09  64.56   0.76      0   2526  358.6   0.91   0.60    0.0   1.05    0.47    0.47    0.36    0.20    0.13    0.07    0.04    0.01    0.00    0.00     1350     173
 1981 166    75    60   10.9      7  0.237     66    694   1654    168    760   3303    564   293.3  0.501   2544    161  0.000  0.000  0.000  0.000  0.000  0.000  0.000    2.02  65.01   0.77      0   2544  359.8   0.91   0.60    0.0   1.07    0.46    0.46    0.36    0.20    0.12    0.06    0.04    0.01    0.00    0.00     1379     177
 1981 167    76    61   10.9      8  0.177     49    686   1666    165    735   3288    564   295.5  0.507   2553    161  0.000  0.000  0.000  0.000  0.000  0.000  0.000    1.98  65.27   0.78      0   2553  360.9   0.91   0.60    0.0   1.08    0.45    0.45    0.35    0.19    0.12    0.06    0.04    0.01    0.00    0.00     1401     180

*DSSAT Cropping System Model Ver. 4.6.1.000 -release      JUL 11, 2017; 16:24:51
                                                                                
*RUN   3        : SIM                       CRGRO046 6\000006    1              
 MODEL          : CRGRO046 - Dry bean                                           
 EXPERIMENT     : 6\000006 BN PALMIRA_ANALISIS SENSIBILIDAD                     
 DATA PATH      : D:\B\0\00000                                                  
 TREATMENT  1   : SIM                       CRGRO046                            
  
!                                                                                                                                                                                                                                                    Root Dens. (cm/cm3) by soil depth (cm):
!                                                                                                                                                                                                                                                    0-5    5-15   15-25   25-35   35-50   50-65   65-80   80-99  99-122 122-209
@YEAR DOY   DAS   DAP   L#SD   GSTD   LAID   LWAD   SWAD   GWAD   RWAD   VWAD   CWAD   G#AD    GWGD   HIAD   PWAD   P#AD   WSPD   WSGD   NSTD  PST1A  PST2A   KSTD   EWSD    LN%D   SH%D   HIPD   PWDD   PWTD   SLAD   CHTD   CWID   NWAD   RDPD    RL1D    RL2D    RL3D    RL4D    RL5D    RL6D    RL7D    RL8D    RL9D   RL10D    SNW0C   SNW1C
 1982 106    15     0    0.0      0  0.000      0      0      0      0      0      0      0     0.0  0.000      0      0  0.000  0.000  0.000  0.000  0.000  0.000  0.000    0.00   0.00   0.00      0      0    0.0   0.00   0.00    0.0   0.00    0.00    0.00    0.00    0.00    0.00    0.00    0.00    0.00    0.00    0.00        0       0
 1982 107    16     1    0.0      0  0.000      0      0      0      0      0      0      0     0.0  0.000      0      0  0.000  0.000  0.000  0.000  0.000  0.000  0.000    0.00   0.00   0.00      0      0    0.0   0.00   0.00    0.0   0.00    0.00    0.00    0.00    0.00    0.00    0.00    0.00    0.00    0.00    0.00        0       0
 1982 108    17     2    0.0      0  0.000      0      0      0      0      0      0      0     0.0  0.000      0      0  0.000  0.000  0.000  0.000  0.000  0.000  0.000    0.00   0.00   0.00      0      0    0.0   0.00   0.00    0.0   0.00    0.00    0.00    0.00    0.00    0.00    0.00    0.00    0.00    0.00    0.00        0       0
 1982 109    18     3    0.0      0  0.000      0      0      0      0      0      0      0     0.0  0.000      0      0  0.000  0.000  0.000  0.000  0.000  0.000  0.000    0.00   0.00   0.00      0      0    0.0   0.00   0.00    0.0   0.00    0.00    0.00    0.00    0.00    0.00    0.00    0.00    0.00    0.00    0.00        0       0
 1982 110    19     4    0.0      0  0.000      0      0      0      0      0      0      0     0.0  0.000      0      0  0.000  0.000  0.000  0.000  0.000  0.000  0.000    0.00   0.00   0.00      0      0    0.0   0.00   0.00    0.0   0.00    0.00    0.00    0.00    0.00    0.00    0.00    0.00    0.00    0.00    0.00        0       0
 1982 111    20     5    0.2      0  0.079     31     13      0     43     44     44      0     0.0  0.000      0      0  0.000  0.000  0.000  0.000  0.000  0.000  0.000    3.84   0.00   0.00      0      0  256.8   0.04   0.03    0.0   0.27    0.15    0.15    0.15    0.00    0.00    0.00    0.00    0.00    0.00    0.00        0       1
 1982 112    21     6    0.5      0  0.082     31     14      0     51     45     45      0     0.0  0.000      0      0  0.000  0.000  0.664  0.000  0.000  0.000  0.000    3.78   0.00   0.00      0      0  261.1   0.05   0.03    0.0   0.29    0.18    0.18    0.18    0.01    0.00    0.00    0.00    0.00    0.00    0.00        0       2
 1982 113    22     7    0.8      0  0.084     32     15      0     59     46     46      0     0.0  0.000      0      0  0.000  0.000  0.741  0.000  0.000  0.000  0.000    3.73   0.00   0.00      0      0  264.7   0.06   0.04    0.0   0.31    0.21    0.21    0.20    0.02    0.00    0.00    0.00    0.00    0.00    0.00        0       3
 1982 114    23     8    1.1      0  0.088     32     16      0     67     49     49      0     0.0  0.000      0      0  0.000  0.000  0.543  0.000  0.000  0.000  0.000    3.71   0.00   0.00      0      0  270.2   0.07   0.04    0.0   0.33    0.24    0.24    0.22    0.03    0.00    0.00    0.00    0.00    0.00    0.00        0       4
 1982 115    24     9    1.4      0  0.092     33     18      0     74     51     51      0     0.0  0.000      0      0  0.000  0.000  0.485  0.000  0.000  0.000  0.000    3.69   0.00   0.00      0      0  275.5   0.08   0.05    0.0   0.36    0.26    0.26    0.23    0.04    0.00    0.00    0.00    0.00    0.00    0.00        1       6
 1982 116    25    10    1.7      0  0.097     34     21      0     80     55     55      0     0.0  0.000      0      0  0.000  0.000  0.401  0.000  0.000  0.000  0.000    3.66   0.00   0.00      0      0  283.4   0.09   0.06    0.0   0.38    0.28    0.28    0.25    0.05    0.00    0.00    0.00    0.00    0.00    0.00        1       7
 1982 117    26    11    2.0      0  0.112     38     25      0     83     63     63      0     0.0  0.000      0      0  0.000  0.000  0.118  0.000  0.000  0.000  0.000    3.65   0.00   0.00      0      0  296.9   0.10   0.07    0.0   0.40    0.29    0.29    0.25    0.06    0.00    0.00    0.00    0.00    0.00    0.00        2       9
 1982 118    27    12    2.2      0  0.134     42     28      0     84     70     70      0     0.0  0.000      0      0  0.000  0.000  0.058  0.000  0.000  0.000  0.000    3.60   0.00   0.00      0      0  321.5   0.11   0.07    0.0   0.42    0.29    0.29    0.25    0.06    0.00    0.00    0.00    0.00    0.00    0.00        2      10
 1982 119    28    13    2.5      0  0.160     47     33      0     85     80     80      0     0.0  0.000      0      0  0.000  0.000  0.000  0.000  0.000  0.000  0.000    3.57   0.00   0.00      0      0  339.5   0.12   0.08    0.0   0.44    0.30    0.30    0.25    0.07    0.01    0.00    0.00    0.00    0.00    0.00        2      12
 1982 120    29    14    2.8      0  0.189     54     39      0     87     93     93      0     0.0  0.000      0      0  0.000  0.000  0.000  0.000  0.000  0.000  0.000    3.53   0.00   0.00      0      0  351.7   0.13   0.09    0.0   0.46    0.30    0.30    0.26    0.07    0.01    0.00    0.00    0.00    0.00    0.00        3      14
 1982 121    30    15    3.1      0  0.243     66     42      0     87    108    108      0     0.0  0.000      0      0  0.000  0.000  0.000  0.000  0.000  0.000  0.000    3.53   0.00   0.00      0      0  369.7   0.14   0.10    0.0   0.48    0.30    0.30    0.25    0.07    0.01    0.00    0.00    0.00    0.00    0.00        4      16
 1982 122    31    16    3.4      0  0.298     77     48      0     87    126    126      0     0.0  0.000      0      0  0.000  0.000  0.000  0.000  0.000  0.000  0.000    3.52   0.00   0.00      0      0  384.9   0.15   0.11    0.0   0.50    0.30    0.30    0.26    0.07    0.01    0.00    0.00    0.00    0.00    0.00        4      18
 1982 123    32    17    3.7      0  0.352     90     57      0     89    147    147      0     0.0  0.000      0      0  0.000  0.000  0.000  0.000  0.000  0.000  0.000    3.51   0.00   0.00      0      0  393.1   0.16   0.13    0.0   0.52    0.30    0.30    0.26    0.08    0.02    0.00    0.00    0.00    0.00    0.00        5      19
 1982 124    33    18    4.0      0  0.407    101     69      0     91    171    171      0     0.0  0.000      0      0  0.000  0.000  0.000  0.000  0.000  0.000  0.000    3.51   0.00   0.00      0      0  400.9   0.17   0.15    0.0   0.54    0.31    0.31    0.26    0.08    0.02    0.00    0.00    0.00    0.00    0.00        6      21
 1982 125    34    19    4.3      0  0.464    114     84      0     94    197    197      0     0.0  0.000      0      0  0.000  0.000  0.000  0.000  0.000  0.000  0.000    3.50   0.00   0.00      0      0  409.0   0.18   0.17    0.0   0.56    0.31    0.31    0.26    0.09    0.02    0.00    0.00    0.00    0.00    0.00        7      23
 1982 126    35    20    4.6      0  0.572    138     92      0     94    229    229      0     0.0  0.000      0      0  0.000  0.000  0.000  0.000  0.000  0.000  0.000    3.53   0.00   0.00      0      0  414.7   0.20   0.20    0.0   0.58    0.31    0.31    0.26    0.09    0.03    0.00    0.00    0.00    0.00    0.00        9      25
 1982 127    36    21    4.9      0  0.702    166    101      0     95    267    267      0     0.0  0.000      0      0  0.000  0.000  0.000  0.000  0.000  0.000  0.000    3.55   0.00   0.00      0      0  422.0   0.22   0.22    0.0   0.60    0.32    0.32    0.26    0.09    0.03    0.00    0.00    0.00    0.00    0.00       10      27
 1982 128    37    22    5.2      0  0.831    194    117      0     99    311    311      0     0.0  0.000      0      0  0.000  0.000  0.000  0.000  0.000  0.000  0.000    3.55   0.00   0.00      0      0  428.0   0.23   0.24    0.0   0.62    0.32    0.32    0.27    0.09    0.03    0.01    0.00    0.00    0.00    0.00       12      29
 1982 129    38    23    5.5      0  0.976    226    136      0    102    361    361      0     0.0  0.000      0      0  0.000  0.000  0.000  0.000  0.000  0.000  0.000    3.56   0.00   0.00      0      0  432.6   0.26   0.26    0.0   0.63    0.33    0.33    0.27    0.10    0.04    0.01    0.00    0.00    0.00    0.00       14      31
 1982 130    39    24    5.8      0  1.135    261    158      0    107    419    419      0     0.0  0.000      0      0  0.000  0.000  0.000  0.000  0.000  0.000  0.000    3.56   0.00   0.00      0      0  434.7   0.28   0.29    0.0   0.65    0.34    0.34    0.28    0.11    0.04    0.01    0.00    0.00    0.00    0.00       17      34
 1982 131    40    25    6.1      0  1.320    302    183      0    112    485    485      0     0.0  0.000      0      0  0.000  0.000  0.000  0.000  0.000  0.000  0.000    3.57   0.00   0.00      0      0  437.6   0.30   0.31    0.0   0.67    0.35    0.35    0.29    0.11    0.05    0.02    0.00    0.00    0.00    0.00       20      36
 1982 132    41    26    6.4      0  1.521    347    213      0    119    560    560      0     0.0  0.000      0      0  0.000  0.000  0.000  0.000  0.000  0.000  0.000    3.57   0.00   0.00      0      0  438.5   0.33   0.33    0.0   0.68    0.37    0.37    0.30    0.12    0.06    0.02    0.00    0.00    0.00    0.00       24      38
 1982 133    42    27    6.7      0  1.715    386    244      0    126    631    631      0     0.0  0.000      0      0  0.000  0.000  0.000  0.000  0.000  0.000  0.000    3.63   0.00   0.00      0      0  444.0   0.36   0.35    0.0   0.70    0.39    0.39    0.31    0.13    0.06    0.02    0.00    0.00    0.00    0.00       40      41
 1982 134    43    28    7.0      0  1.906    427    281      0    134    708    708      0     0.0  0.000      0      0  0.000  0.000  0.000  0.000  0.000  0.000  0.000    3.69   0.00   0.00      0      0  446.2   0.39   0.38    0.0   0.72    0.40    0.40    0.33    0.14    0.07    0.03    0.00    0.00    0.00    0.00       60      44
 1982 135    44    29    7.3      1  2.093    468    321      0    143    790    790      0     0.0  0.000      0      0  0.000  0.000  0.000  0.000  0.000  0.000  0.000    3.75   0.00   0.00      0      0  446.9   0.42   0.40    0.0   0.74    0.43    0.43    0.34    0.16    0.08    0.03    0.01    0.00    0.00    0.00       83      47
 1982 136    45    30    7.6      1  2.254    509    367      0    153    876    876      0     0.0  0.000      0      0  0.000  0.000  0.000  0.000  0.000  0.000  0.000    3.81   0.00   0.00      0      0  442.6   0.45   0.42    0.0   0.75    0.45    0.45    0.36    0.17    0.09    0.04    0.01    0.00    0.00    0.00      112      50
 1982 137    46    31    7.9      1  2.392    549    417      0    164    966    966      0     0.0  0.000      0      0  0.000  0.000  0.000  0.000  0.000  0.000  0.000    3.88   0.00   0.00      0      0  435.5   0.48   0.44    0.0   0.77    0.47    0.47    0.38    0.18    0.10    0.05    0.01    0.00    0.00    0.00      144      53
 1982 138    47    32    8.2      3  2.564    595    472      0    174   1067   1067      0     0.0  0.000      0      0  0.000  0.000  0.000  0.000  0.000  0.000  0.000    3.90   0.00   0.00      0      0  431.0   0.51   0.46    0.0   0.79    0.49    0.49    0.39    0.19    0.11    0.05    0.02    0.00    0.00    0.00      168      57
 1982 139    48    33    8.5      3  2.720    645    531      0    184   1176   1181      0     0.0  0.000      4      5  0.000  0.000  0.000  0.000  0.000  0.000  0.000    3.90   0.00   0.00      0      4  421.6   0.54   0.48    0.0   0.80    0.52    0.52    0.41    0.21    0.12    0.06    0.02    0.00    0.00    0.00      186      60
 1982 140    49    34    8.8      3  2.853    690    590      0    194   1280   1299      0     0.0  0.000     18     16  0.000  0.000  0.000  0.000  0.000  0.000  0.000    3.89   0.00   0.01      0     18  413.4   0.57   0.50    0.0   0.82    0.54    0.54    0.43    0.22    0.13    0.06    0.03    0.00    0.00    0.00      205      64
 1982 141    50    35    9.1      3  2.958    725    640      0    201   1365   1407      0     0.0  0.000     43     28  0.000  0.000  0.000  0.000  0.000  0.000  0.000    3.88   0.00   0.03      0     43  408.3   0.60   0.52    0.0   0.83    0.56    0.56    0.44    0.23    0.13    0.07    0.03    0.00    0.00    0.00      222      67
 1982 142    51    36    9.3      3  3.053    762    696      0    209   1458   1534      0     0.0  0.000     76     39  0.000  0.000  0.000  0.000  0.000  0.000  0.000    3.87   0.00   0.05      0     76  400.5   0.63   0.53    0.0   0.85    0.57    0.57    0.45    0.24    0.14    0.07    0.03    0.00    0.00    0.00      237      72
 1982 143    52    37    9.6      3  3.121    798    753      0    216   1551   1670      0     0.0  0.000    119     52  0.000  0.000  0.000  0.000  0.000  0.000  0.000    3.85   0.00   0.07      0    119  390.9   0.66   0.55    0.0   0.87    0.59    0.59    0.46    0.25    0.15    0.07    0.04    0.00    0.00    0.00      253      76
 1982 144    53    38    9.9      3  3.168    830    808      0    223   1638   1811      0     0.0  0.000    173     65  0.000  0.000  0.000  0.000  0.000  0.000  0.000    3.83   0.00   0.10      0    173  381.6   0.70   0.56    0.0   0.88    0.60    0.60    0.47    0.25    0.15    0.08    0.04    0.00    0.00    0.00      268      80
 1982 145    54    39   10.2      5  3.188    847    844      0    226   1691   1931      0     0.0  0.000    240     78  0.000  0.000  0.000  0.000  0.000  0.000  0.000    3.81   0.00   0.12      0    240  376.5   0.73   0.58    0.0   0.90    0.61    0.61    0.47    0.26    0.16    0.08    0.04    0.00    0.00    0.00      282      84
 1982 146    55    40   10.5      5  3.212    870    890      0    230   1760   2075     18     0.0  0.000    315     90  0.000  0.000  0.000  0.000  0.000  0.000  0.000    3.78   0.00   0.15      0    315  369.2   0.77   0.59    0.0   0.91    0.61    0.61    0.48    0.26    0.16    0.08    0.04    0.01    0.00    0.00      293      89
 1982 147    56    41   10.8      5  3.212    882    922      7    231   1805   2209     56    12.7  0.003    404    104  0.000  0.000  0.000  0.000  0.000  0.000  0.000    3.75   1.76   0.18      0    404  364.1   0.80   0.60    0.0   0.93    0.62    0.62    0.48    0.26    0.16    0.08    0.05    0.01    0.00    0.00      305      94
 1982 148    57    42   11.0      5  3.198    889    948     29    231   1838   2347     96    30.2  0.012    509    118  0.000  0.000  0.000  0.000  0.000  0.000  0.000    3.73   5.73   0.22      0    509  359.6   0.84   0.60    0.0   0.94    0.62    0.62    0.48    0.26    0.16    0.08    0.05    0.01    0.00    0.00      318      99
 1982 149    58    43   11.0      5  3.170    890    966     67    230   1855   2486    134    49.9  0.027    631    131  0.000  0.000  0.000  0.000  0.000  0.000  0.000    3.72  10.62   0.25      0    631  356.3   0.87   0.60    0.0   0.96    0.61    0.61    0.48    0.26    0.16    0.08    0.05    0.01    0.00    0.00      332     103
 1982 150    59    44   11.0      5  3.121    881    973    119    228   1855   2622    177    67.4  0.045    767    145  0.000  0.000  0.000  0.000  0.000  0.000  0.000    3.67  15.53   0.29      0    767  354.1   0.91   0.60    0.0   0.98    0.61    0.61    0.47    0.26    0.16    0.08    0.05    0.01    0.00    0.00      347     108
 1982 151    60    45   11.0      5  3.062    867    971    187    224   1838   2755    222    84.2  0.068    917    158  0.000  0.000  0.000  0.000  0.000  0.000  0.000    3.62  20.37   0.33      0    917  353.3   0.94   0.60    0.0   0.99    0.60    0.60    0.46    0.26    0.16    0.08    0.05    0.01    0.00    0.00      365     113
 1982 152    61    46   11.0      5  2.992    844    957    272    219   1801   2884    268   101.4  0.094   1082    171  0.000  0.000  0.000  0.000  0.000  0.000  0.000    3.56  25.11   0.38      0   1082  354.4   0.94   0.60    0.0   1.01    0.58    0.58    0.45    0.25    0.16    0.08    0.05    0.01    0.00    0.00      384     118
 1982 153    62    47   11.0      5  2.919    821    943    375    213   1764   3014    309   121.1  0.124   1250    184  0.000  0.000  0.000  0.000  0.000  0.000  0.000    3.49  29.98   0.41      0   1250  355.6   0.94   0.60    0.0   1.01    0.57    0.57    0.44    0.25    0.15    0.08    0.04    0.01    0.00    0.00      403     123
 1982 154    63    48   11.0      5  2.840    796    928    494    208   1724   3136    402   122.9  0.158   1412    194  0.000  0.000  0.000  0.000  0.000  0.000  0.000    3.42  35.00   0.45      0   1412  356.8   0.94   0.60    0.0   1.01    0.56    0.56    0.43    0.24    0.15    0.08    0.04    0.01    0.00    0.00      428     128
 1982 155    64    49   11.0      5  2.759    770    913    654    203   1683   3255    449   145.8  0.201   1572    201  0.000  0.000  0.000  0.000  0.000  0.000  0.000    3.33  41.59   0.48      0   1572  358.1   0.94   0.60    0.0   1.01    0.55    0.55    0.42    0.24    0.15    0.08    0.04    0.01    0.00    0.00      449     132
 1982 156    65    50   11.0      5  2.674    744    898    829    198   1641   3375    487   170.2  0.246   1733    203  0.000  0.000  0.000  0.000  0.000  0.000  0.000    3.24  47.81   0.51      0   1733  359.4   0.94   0.60    0.0   1.01    0.53    0.53    0.42    0.23    0.14    0.07    0.04    0.01    0.00    0.00      480     136
 1982 157    66    51   11.0      5  2.587    718    884   1013    194   1602   3492    518   195.6  0.290   1890    201  0.000  0.000  0.000  0.000  0.000  0.000  0.000    3.14  53.57   0.54      0   1890  360.5   0.94   0.60    0.0   1.01    0.52    0.52    0.41    0.23    0.14    0.07    0.04    0.01    0.00    0.00      516     141
 1982 158    67    52   11.0      7  2.505    694    874   1193    189   1568   3616    530   225.1  0.330   2049    191  0.000  0.000  0.000  0.000  0.000  0.000  0.000    3.03  58.23   0.57      0   2049  360.9   0.94   0.60    0.0   1.01    0.51    0.51    0.40    0.22    0.14    0.07    0.04    0.01    0.00    0.00      548     145
 1982 159    68    53   11.0      7  1.851    511    813   1367    185   1324   3538    530   258.0  0.386   2214    178  0.000  0.000  0.000  0.000  0.000  0.000  0.000    2.84  61.75   0.63      0   2214  362.3   0.94   0.60    0.0   1.01    0.50    0.50    0.39    0.22    0.13    0.07    0.04    0.01    0.00    0.00      774     149
 1982 160    69    54   11.0      7  1.369    376    768   1506    180   1144   3489    530   284.2  0.432   2345    167  0.000  0.000  0.000  0.000  0.000  0.000  0.000    2.66  64.24   0.67      0   2345  363.7   0.94   0.60    0.0   1.01    0.49    0.49    0.38    0.21    0.13    0.07    0.04    0.01    0.00    0.00      940     153
 1982 161    70    55   11.0      7  1.014    278    733   1617    176   1011   3460    530   305.1  0.467   2448    159  0.000  0.000  0.000  0.000  0.000  0.000  0.000    2.51  66.06   0.71      0   2448  365.1   0.94   0.60    0.0   1.01    0.48    0.48    0.37    0.21    0.13    0.07    0.04    0.01    0.00    0.00     1062     157
 1982 162    71    56   11.0      7  0.752    205    707   1702    172    913   3439    530   321.1  0.495   2526    154  0.000  0.000  0.000  0.000  0.000  0.000  0.000    2.37  67.37   0.73      0   2526  366.3   0.94   0.60    0.0   1.01    0.47    0.47    0.36    0.20    0.12    0.06    0.04    0.01    0.00    0.00     1152     161
 1982 163    72    57   11.0      7  0.559    152    687   1764    168    839   3420    530   332.7  0.516   2581    151  0.000  0.000  0.000  0.000  0.000  0.000  0.000    2.24  68.32   0.75      0   2581  367.7   0.94   0.60    0.0   1.01    0.46    0.46    0.36    0.20    0.12    0.06    0.04    0.01    0.00    0.00     1219     164
 1982 164    73    58   11.0      7  0.415    113    671   1809    165    783   3404    530   341.3  0.531   2621    151  0.000  0.000  0.000  0.000  0.000  0.000  0.000    2.13  69.03   0.77      0   2621  368.9   0.94   0.60    0.0   1.01    0.45    0.45    0.35    0.19    0.12    0.06    0.03    0.01    0.00    0.00     1268     168
 1982 165    74    59   11.0      7  0.309     83    658   1841    161    741   3388    530   347.4  0.543   2647    151  0.000  0.000  0.000  0.000  0.000  0.000  0.000    2.02  69.55   0.78      0   2647  370.3   0.94   0.60    0.0   1.01    0.44    0.44    0.34    0.19    0.12    0.06    0.03    0.01    0.00    0.00     1305     172
 1982 166    75    60   11.0      7  0.230     62    648   1863    157    710   3374    530   351.4  0.552   2664    151  0.000  0.000  0.000  0.000  0.000  0.000  0.000    1.94  69.92   0.79      0   2664  371.5   0.94   0.60    0.0   1.01    0.43    0.43    0.33    0.19    0.11    0.06    0.03    0.01    0.00    0.00     1332     175
 1982 167    76    61   11.0      8  0.172     46    640   1874    154    686   3359    530   353.6  0.558   2673    151  0.000  0.000  0.000  0.000  0.000  0.000  0.000    1.90  70.13   0.80      0   2673  372.7   0.94   0.60    0.0   1.01    0.42    0.42    0.33    0.18    0.11    0.06    0.03    0.01    0.00    0.00     1352     178

*DSSAT Cropping System Model Ver. 4.6.1.000 -release      JUL 11, 2017; 16:24:51
                                                                                
*RUN   4        : SIM                       CRGRO046 6\000006    1              
 MODEL          : CRGRO046 - Dry bean                                           
 EXPERIMENT     : 6\000006 BN PALMIRA_ANALISIS SENSIBILIDAD                     
 DATA PATH      : D:\B\0\00000                                                  
 TREATMENT  1   : SIM                       CRGRO046                            
  
!                                                                                                                                                                                                                                                    Root Dens. (cm/cm3) by soil depth (cm):
!                                                                                                                                                                                                                                                    0-5    5-15   15-25   25-35   35-50   50-65   65-80   80-99  99-122 122-209
@YEAR DOY   DAS   DAP   L#SD   GSTD   LAID   LWAD   SWAD   GWAD   RWAD   VWAD   CWAD   G#AD    GWGD   HIAD   PWAD   P#AD   WSPD   WSGD   NSTD  PST1A  PST2A   KSTD   EWSD    LN%D   SH%D   HIPD   PWDD   PWTD   SLAD   CHTD   CWID   NWAD   RDPD    RL1D    RL2D    RL3D    RL4D    RL5D    RL6D    RL7D    RL8D    RL9D   RL10D    SNW0C   SNW1C
 1983 106    15     0    0.0      0  0.000      0      0      0      0      0      0      0     0.0  0.000      0      0  0.000  0.000  0.000  0.000  0.000  0.000  0.000    0.00   0.00   0.00      0      0    0.0   0.00   0.00    0.0   0.00    0.00    0.00    0.00    0.00    0.00    0.00    0.00    0.00    0.00    0.00        0       0
 1983 107    16     1    0.0      0  0.000      0      0      0      0      0      0      0     0.0  0.000      0      0  0.000  0.000  0.000  0.000  0.000  0.000  0.000    0.00   0.00   0.00      0      0    0.0   0.00   0.00    0.0   0.00    0.00    0.00    0.00    0.00    0.00    0.00    0.00    0.00    0.00    0.00        0       0
 1983 108    17     2    0.0      0  0.000      0      0      0      0      0      0      0     0.0  0.000      0      0  0.000  0.000  0.000  0.000  0.000  0.000  0.000    0.00   0.00   0.00      0      0    0.0   0.00   0.00    0.0   0.00    0.00    0.00    0.00    0.00    0.00    0.00    0.00    0.00    0.00    0.00        0       0
 1983 109    18     3    0.0      0  0.000      0      0      0      0      0      0      0     0.0  0.000      0      0  0.000  0.000  0.000  0.000  0.000  0.000  0.000    0.00   0.00   0.00      0      0    0.0   0.00   0.00    0.0   0.00    0.00    0.00    0.00    0.00    0.00    0.00    0.00    0.00    0.00    0.00        0       0
 1983 110    19     4    0.0      0  0.000      0      0      0      0      0      0      0     0.0  0.000      0      0  0.000  0.000  0.000  0.000  0.000  0.000  0.000    0.00   0.00   0.00      0      0    0.0   0.00   0.00    0.0   0.00    0.00    0.00    0.00    0.00    0.00    0.00    0.00    0.00    0.00    0.00        0       0
 1983 111    20     5    0.2      0  0.079     31     13      0     43     44     44      0     0.0  0.000      0      0  0.000  0.000  0.000  0.000  0.000  0.000  0.000    3.84   0.00   0.00      0      0  256.7   0.04   0.03    0.0   0.27    0.15    0.15    0.15    0.00    0.00    0.00    0.00    0.00    0.00    0.00        0       1
 1983 112    21     6    0.5      0  0.082     31     14      0     51     45     45      0     0.0  0.000      0      0  0.000  0.000  0.654  0.000  0.000  0.000  0.000    3.78   0.00   0.00      0      0  261.7   0.05   0.03    0.0   0.29    0.18    0.18    0.18    0.01    0.00    0.00    0.00    0.00    0.00    0.00        0       2
 1983 113    22     7    0.8      0  0.084     32     15      0     59     46     46      0     0.0  0.000      0      0  0.000  0.000  0.740  0.000  0.000  0.000  0.000    3.72   0.00   0.00      0      0  265.3   0.06   0.04    0.0   0.31    0.21    0.21    0.20    0.02    0.00    0.00    0.00    0.00    0.00    0.00        0       3
 1983 114    23     8    1.1      0  0.087     32     16      0     67     48     48      0     0.0  0.000      0      0  0.000  0.000  0.595  0.000  0.000  0.000  0.000    3.70   0.00   0.00      0      0  271.2   0.07   0.04    0.0   0.33    0.24    0.24    0.22    0.03    0.00    0.00    0.00    0.00    0.00    0.00        0       4
 1983 115    24     9    1.4      0  0.091     33     18      0     74     51     51      0     0.0  0.000      0      0  0.000  0.000  0.487  0.000  0.000  0.000  0.000    3.68   0.00   0.00      0      0  277.5   0.08   0.05    0.0   0.36    0.26    0.26    0.23    0.04    0.00    0.00    0.00    0.00    0.00    0.00        1       6
 1983 116    25    10    1.7      0  0.096     34     21      0     80     55     55      0     0.0  0.000      0      0  0.000  0.000  0.375  0.000  0.000  0.000  0.000    3.66   0.00   0.00      0      0  285.2   0.09   0.06    0.0   0.38    0.28    0.28    0.24    0.05    0.00    0.00    0.00    0.00    0.00    0.00        1       7
 1983 117    26    11    2.0      0  0.112     37     25      0     83     62     62      0     0.0  0.000      0      0  0.000  0.000  0.154  0.000  0.000  0.000  0.000    3.64   0.00   0.00      0      0  301.1   0.10   0.07    0.0   0.40    0.29    0.29    0.25    0.06    0.00    0.00    0.00    0.00    0.00    0.00        2       9
 1983 118    27    12    2.3      0  0.138     42     28      0     84     71     71      0     0.0  0.000      0      0  0.000  0.000  0.040  0.000  0.000  0.000  0.000    3.59   0.00   0.00      0      0  326.2   0.11   0.07    0.0   0.42    0.29    0.29    0.25    0.06    0.00    0.00    0.00    0.00    0.00    0.00        2      11
 1983 119    28    13    2.6      0  0.165     48     33      0     85     81     81      0     0.0  0.000      0      0  0.000  0.000  0.000  0.000  0.000  0.000  0.000    3.56   0.00   0.00      0      0  342.8   0.12   0.08    0.0   0.44    0.30    0.30    0.25    0.07    0.01    0.00    0.00    0.00    0.00    0.00        2      12
 1983 120    29    14    2.9      0  0.197     55     39      0     87     94     94      0     0.0  0.000      0      0  0.000  0.000  0.000  0.000  0.000  0.000  0.000    3.53   0.00   0.00      0      0  358.2   0.13   0.09    0.0   0.46    0.30    0.30    0.26    0.07    0.01    0.00    0.00    0.00    0.00    0.00        3      14
 1983 121    30    15    3.2      0  0.253     67     42      0     87    110    110      0     0.0  0.000      0      0  0.000  0.000  0.000  0.000  0.000  0.000  0.000    3.52   0.00   0.00      0      0  374.7   0.14   0.10    0.0   0.48    0.30    0.30    0.25    0.07    0.01    0.00    0.00    0.00    0.00    0.00        4      16
 1983 122    31    16    3.5      0  0.309     80     49      0     87    129    129      0     0.0  0.000      0      0  0.000  0.000  0.000  0.000  0.000  0.000  0.000    3.51   0.00   0.00      0      0  387.9   0.15   0.12    0.0   0.50    0.30    0.30    0.26    0.07    0.01    0.00    0.00    0.00    0.00    0.00        4      18
 1983 123    32    17    3.8      0  0.364     92     58      0     89    150    150      0     0.0  0.000      0      0  0.000  0.000  0.000  0.000  0.000  0.000  0.000    3.51   0.00   0.00      0      0  395.5   0.16   0.14    0.0   0.52    0.30    0.30    0.26    0.08    0.02    0.00    0.00    0.00    0.00    0.00        5      20
 1983 124    33    18    4.1      0  0.419    103     71      0     91    174    174      0     0.0  0.000      0      0  0.000  0.000  0.000  0.000  0.000  0.000  0.000    3.50   0.00   0.00      0      0  406.0   0.17   0.16    0.0   0.54    0.31    0.31    0.26    0.08    0.02    0.00    0.00    0.00    0.00    0.00        6      22
 1983 125    34    19    4.4      0  0.490    119     83      0     93    203    203      0     0.0  0.000      0      0  0.000  0.000  0.000  0.000  0.000  0.000  0.000    3.51   0.00   0.00      0      0  410.4   0.19   0.18    0.0   0.56    0.31    0.31    0.26    0.09    0.02    0.00    0.00    0.00    0.00    0.00        8      24
 1983 126    35    20    4.7      0  0.605    145     92      0     94    237    237      0     0.0  0.000      0      0  0.000  0.000  0.000  0.000  0.000  0.000  0.000    3.53   0.00   0.00      0      0  416.8   0.20   0.20    0.0   0.58    0.31    0.31    0.26    0.09    0.03    0.00    0.00    0.00    0.00    0.00        9      26
 1983 127    36    21    5.0      0  0.743    174    102      0     96    276    276      0     0.0  0.000      0      0  0.000  0.000  0.000  0.000  0.000  0.000  0.000    3.55   0.00   0.00      0      0  426.2   0.22   0.22    0.0   0.60    0.32    0.32    0.26    0.09    0.03    0.00    0.00    0.00    0.00    0.00       11      28
 1983 128    37    22    5.3      0  0.873    204    120      0     99    323    323      0     0.0  0.000      0      0  0.000  0.000  0.000  0.000  0.000  0.000  0.000    3.55   0.00   0.00      0      0  427.9   0.24   0.25    0.0   0.62    0.32    0.32    0.27    0.10    0.03    0.01    0.00    0.00    0.00    0.00       13      30
 1983 129    38    23    5.6      0  1.024    238    140      0    103    378    378      0     0.0  0.000      0      0  0.000  0.000  0.000  0.000  0.000  0.000  0.000    3.56   0.00   0.00      0      0  430.7   0.26   0.27    0.0   0.64    0.33    0.33    0.28    0.10    0.04    0.01    0.00    0.00    0.00    0.00       15      32
 1983 130    39    24    5.9      0  1.198    276    164      0    108    440    440      0     0.0  0.000      0      0  0.000  0.000  0.000  0.000  0.000  0.000  0.000    3.56   0.00   0.00      0      0  434.2   0.29   0.29    0.0   0.66    0.34    0.34    0.28    0.11    0.04    0.01    0.00    0.00    0.00    0.00       18      34
 1983 131    40    25    6.2      0  1.405    317    191      0    114    508    508      0     0.0  0.000      0      0  0.000  0.000  0.000  0.000  0.000  0.000  0.000    3.56   0.00   0.00      0      0  443.0   0.32   0.32    0.0   0.67    0.36    0.36    0.29    0.12    0.05    0.02    0.00    0.00    0.00    0.00       21      37
 1983 132    41    26    6.5      0  1.591    361    221      0    121    582    582      0     0.0  0.000      0      0  0.000  0.000  0.000  0.000  0.000  0.000  0.000    3.60   0.00   0.00      0      0  440.7   0.35   0.34    0.0   0.69    0.37    0.37    0.30    0.13    0.06    0.02    0.00    0.00    0.00    0.00       30      39
 1983 133    42    27    6.8      0  1.776    402    255      0    128    657    657      0     0.0  0.000      0      0  0.000  0.000  0.000  0.000  0.000  0.000  0.000    3.65   0.00   0.00      0      0  441.8   0.38   0.36    0.0   0.71    0.39    0.39    0.32    0.14    0.06    0.03    0.00    0.00    0.00    0.00       48      42
 1983 134    43    28    7.1      0  1.960    443    294      0    137    737    737      0     0.0  0.000      0      0  0.000  0.000  0.000  0.000  0.000  0.000  0.000    3.71   0.00   0.00      0      0  442.0   0.41   0.39    0.0   0.73    0.41    0.41    0.33    0.15    0.07    0.03    0.01    0.00    0.00    0.00       69      45
 1983 135    44    29    7.4      1  2.148    483    336      0    146    819    819      0     0.0  0.000      0      0  0.000  0.000  0.000  0.000  0.000  0.000  0.000    3.77   0.00   0.00      0      0  445.1   0.44   0.41    0.0   0.74    0.43    0.43    0.35    0.16    0.08    0.04    0.01    0.00    0.00    0.00       95      48
 1983 136    45    30    7.7      1  2.304    522    383      0    156    905    905      0     0.0  0.000      0      0  0.000  0.000  0.000  0.000  0.000  0.000  0.000    3.83   0.00   0.00      0      0  441.3   0.47   0.43    0.0   0.76    0.45    0.45    0.36    0.17    0.09    0.04    0.01    0.00    0.00    0.00      123      51
 1983 137    46    31    8.0      1  2.440    562    435      0    167    996    996      0     0.0  0.000      0      0  0.000  0.000  0.000  0.000  0.000  0.000  0.000    3.90   0.00   0.00      0      0  434.4   0.50   0.45    0.0   0.78    0.48    0.48    0.38    0.18    0.10    0.05    0.02    0.00    0.00    0.00      155      54
[...]
 2011 108    17     2    0.0      0  0.000      0      0      0      0      0      0      0     0.0  0.000      0      0  0.000  0.000  0.000  0.000  0.000  0.000  0.000    0.00   0.00   0.00      0      0    0.0   0.00   0.00    0.0   0.00    0.00    0.00    0.00    0.00    0.00    0.00    0.00    0.00    0.00    0.00        0       0
 2011 109    18     3    0.0      0  0.000      0      0      0      0      0      0      0     0.0  0.000      0      0  0.000  0.000  0.000  0.000  0.000  0.000  0.000    0.00   0.00   0.00      0      0    0.0   0.00   0.00    0.0   0.00    0.00    0.00    0.00    0.00    0.00    0.00    0.00    0.00    0.00    0.00        0       0
 2011 110    19     4    0.0      0  0.000      0      0      0      0      0      0      0     0.0  0.000      0      0  0.000  0.000  0.000  0.000  0.000  0.000  0.000    0.00   0.00   0.00      0      0    0.0   0.00   0.00    0.0   0.00    0.00    0.00    0.00    0.00    0.00    0.00    0.00    0.00    0.00    0.00        0       0
 2011 111    20     5    0.2      0  0.079     31     13      0     43     44     44      0     0.0  0.000      0      0  0.000  0.000  0.000  0.000  0.000  0.000  0.000    3.84   0.00   0.00      0      0  256.7   0.04   0.03    0.0   0.27    0.15    0.15    0.15    0.00    0.00    0.00    0.00    0.00    0.00    0.00        0       1
 2011 112    21     6    0.5      0  0.082     31     14      0     51     45     45      0     0.0  0.000      0      0  0.000  0.000  0.674  0.000  0.000  0.000  0.000    3.78   0.00   0.00      0      0  261.2   0.05   0.03    0.0   0.29    0.19    0.19    0.18    0.01    0.00    0.00    0.00    0.00    0.00    0.00        0       2
 2011 113    22     7    0.8      0  0.084     32     15      0     60     47     47      0     0.0  0.000      0      0  0.000  0.000  0.703  0.000  0.000  0.000  0.000    3.73   0.00   0.00      0      0  264.8   0.06   0.04    0.0   0.31    0.22    0.22    0.20    0.02    0.00    0.00    0.00    0.00    0.00    0.00        0       3
 2011 114    23     8    1.1      0  0.088     32     16      0     68     49     49      0     0.0  0.000      0      0  0.000  0.000  0.555  0.000  0.000  0.000  0.000    3.71   0.00   0.00      0      0  270.3   0.07   0.04    0.0   0.33    0.24    0.24    0.22    0.03    0.00    0.00    0.00    0.00    0.00    0.00        0       4
 2011 115    24     9    1.4      0  0.092     33     19      0     76     52     52      0     0.0  0.000      0      0  0.000  0.000  0.476  0.000  0.000  0.000  0.000    3.68   0.00   0.00      0      0  277.1   0.08   0.05    0.0   0.36    0.27    0.27    0.24    0.05    0.00    0.00    0.00    0.00    0.00    0.00        1       6
 2011 116    25    10    1.7      0  0.098     34     22      0     82     57     57      0     0.0  0.000      0      0  0.000  0.000  0.298  0.000  0.000  0.000  0.000    3.66   0.00   0.00      0      0  284.0   0.09   0.06    0.0   0.38    0.29    0.29    0.25    0.06    0.00    0.00    0.00    0.00    0.00    0.00        1       7
 2011 117    26    11    2.0      0  0.113     38     27      0     85     64     64      0     0.0  0.000      0      0  0.000  0.000  0.146  0.000  0.000  0.000  0.000    3.63   0.00   0.00      0      0  299.9   0.10   0.07    0.0   0.40    0.30    0.30    0.26    0.06    0.00    0.00    0.00    0.00    0.00    0.00        2       9
 2011 118    27    12    2.3      0  0.140     44     31      0     86     74     74      0     0.0  0.000      0      0  0.000  0.000  0.000  0.000  0.000  0.000  0.000    3.58   0.00   0.00      0      0  320.4   0.11   0.07    0.0   0.42    0.30    0.30    0.26    0.07    0.00    0.00    0.00    0.00    0.00    0.00        2      11
 2011 119    28    13    2.6      0  0.167     50     37      0     88     86     86      0     0.0  0.000      0      0  0.000  0.000  0.000  0.000  0.000  0.000  0.000    3.54   0.00   0.00      0      0  336.3   0.12   0.08    0.0   0.44    0.30    0.30    0.26    0.07    0.01    0.00    0.00    0.00    0.00    0.00        3      13
 2011 120    29    14    2.9      0  0.201     57     43      0     89    100    100      0     0.0  0.000      0      0  0.000  0.000  0.000  0.000  0.000  0.000  0.000    3.52   0.00   0.00      0      0  352.3   0.13   0.09    0.0   0.46    0.31    0.31    0.26    0.07    0.01    0.00    0.00    0.00    0.00    0.00        3      15
 2011 121    30    15    3.2      0  0.259     70     47      0     89    117    117      0     0.0  0.000      0      0  0.000  0.000  0.000  0.000  0.000  0.000  0.000    3.52   0.00   0.00      0      0  369.2   0.14   0.10    0.0   0.48    0.31    0.31    0.26    0.08    0.01    0.00    0.00    0.00    0.00    0.00        4      16
 2011 122    31    16    3.5      0  0.314     83     55      0     91    138    138      0     0.0  0.000      0      0  0.000  0.000  0.000  0.000  0.000  0.000  0.000    3.52   0.00   0.00      0      0  377.3   0.15   0.12    0.0   0.50    0.31    0.31    0.26    0.08    0.01    0.00    0.00    0.00    0.00    0.00        5      18
 2011 123    32    17    3.8      0  0.369     93     66      0     93    159    159      0     0.0  0.000      0      0  0.000  0.000  0.000  0.000  0.000  0.000  0.000    3.50   0.00   0.00      0      0  395.9   0.16   0.14    0.0   0.53    0.31    0.31    0.27    0.08    0.02    0.00    0.00    0.00    0.00    0.00        5      20
 2011 124    33    18    4.1      0  0.423    105     80      0     96    185    185      0     0.0  0.000      0      0  0.000  0.000  0.000  0.000  0.000  0.000  0.000    3.50   0.00   0.00      0      0  403.4   0.17   0.16    0.0   0.55    0.32    0.32    0.27    0.09    0.02    0.00    0.00    0.00    0.00    0.00        7      22
 2011 125    34    19    4.4      0  0.498    122     94      0     98    215    215      0     0.0  0.000      0      0  0.000  0.000  0.000  0.000  0.000  0.000  0.000    3.51   0.00   0.00      0      0  409.2   0.19   0.18    0.0   0.56    0.33    0.33    0.27    0.09    0.03    0.00    0.00    0.00    0.00    0.00        8      24
 2011 126    35    20    4.7      0  0.619    150    103      0     99    252    252      0     0.0  0.000      0      0  0.000  0.000  0.000  0.000  0.000  0.000  0.000    3.54   0.00   0.00      0      0  413.4   0.20   0.20    0.0   0.58    0.33    0.33    0.27    0.09    0.03    0.00    0.00    0.00    0.00    0.00        9      27
 2011 127    36    21    5.0      0  0.758    180    116      0    101    296    296      0     0.0  0.000      0      0  0.000  0.000  0.000  0.000  0.000  0.000  0.000    3.55   0.00   0.00      0      0  422.0   0.22   0.23    0.0   0.60    0.33    0.33    0.28    0.10    0.03    0.00    0.00    0.00    0.00    0.00       11      29
 2011 128    37    22    5.3      0  0.902    212    135      0    105    346    346      0     0.0  0.000      0      0  0.000  0.000  0.000  0.000  0.000  0.000  0.000    3.56   0.00   0.00      0      0  426.1   0.24   0.25    0.0   0.62    0.34    0.34    0.28    0.10    0.04    0.01    0.00    0.00    0.00    0.00       13      31
 2011 129    38    23    5.6      0  1.067    249    157      0    109    406    406      0     0.0  0.000      0      0  0.000  0.000  0.000  0.000  0.000  0.000  0.000    3.57   0.00   0.00      0      0  429.0   0.26   0.27    0.0   0.64    0.35    0.35    0.29    0.11    0.04    0.01    0.00    0.00    0.00    0.00       15      33
 2011 130    39    24    5.9      0  1.245    291    183      0    115    474    474      0     0.0  0.000      0      0  0.000  0.000  0.000  0.000  0.000  0.000  0.000    3.57   0.00   0.00      0      0  428.1   0.29   0.29    0.0   0.66    0.36    0.36    0.30    0.12    0.05    0.01    0.00    0.00    0.00    0.00       18      36
 2011 131    40    25    6.2      0  1.464    337    213      0    121    550    550      0     0.0  0.000      0      0  0.000  0.000  0.000  0.000  0.000  0.000  0.000    3.57   0.00   0.00      0      0  434.1   0.32   0.32    0.0   0.68    0.38    0.38    0.31    0.13    0.06    0.02    0.00    0.00    0.00    0.00       22      38
 2011 132    41    26    6.5      0  1.682    384    246      0    129    631    631      0     0.0  0.000      0      0  0.000  0.000  0.000  0.000  0.000  0.000  0.000    3.61   0.00   0.00      0      0  437.6   0.35   0.34    0.0   0.69    0.40    0.40    0.32    0.14    0.06    0.02    0.00    0.00    0.00    0.00       33      41
 2011 133    42    27    6.8      0  1.892    429    283      0    138    712    712      0     0.0  0.000      0      0  0.000  0.000  0.000  0.000  0.000  0.000  0.000    3.67   0.00   0.00      0      0  441.2   0.38   0.36    0.0   0.71    0.42    0.42    0.34    0.15    0.07    0.03    0.00    0.00    0.00    0.00       51      44
 2011 134    43    28    7.1      0  2.108    471    321      0    146    792    792      0     0.0  0.000      0      0  0.000  0.000  0.000  0.000  0.000  0.000  0.000    3.72   0.00   0.00      0      0  448.0   0.41   0.39    0.0   0.73    0.44    0.44    0.35    0.16    0.08    0.03    0.01    0.00    0.00    0.00       72      46
 2011 135    44    29    7.4      1  2.311    517    368      0    157    885    885      0     0.0  0.000      0      0  0.000  0.000  0.000  0.000  0.000  0.000  0.000    3.78   0.00   0.00      0      0  447.4   0.43   0.40    0.0   0.74    0.46    0.46    0.37    0.17    0.09    0.04    0.01    0.00    0.00    0.00       98      49
 2011 136    45    30    7.7      1  2.488    562    420      0    168    982    982      0     0.0  0.000      0      0  0.000  0.000  0.000  0.000  0.000  0.000  0.000    3.84   0.00   0.00      0      0  443.0   0.46   0.43    0.0   0.76    0.49    0.49    0.39    0.19    0.10    0.05    0.01    0.00    0.00    0.00      129      53
 2011 137    46    31    8.0      1  2.638    606    478      0    180   1083   1083      0     0.0  0.000      0      0  0.000  0.000  0.000  0.000  0.000  0.000  0.000    3.91   0.00   0.00      0      0  435.4   0.49   0.45    0.0   0.78    0.51    0.51    0.41    0.20    0.11    0.05    0.02    0.00    0.00    0.00      166      56
 2011 138    47    32    8.3      3  2.817    664    545      0    192   1209   1209      0     0.0  0.000      0      0  0.000  0.000  0.000  0.000  0.000  0.000  0.000    3.91   0.00   0.00      0      0  424.0   0.52   0.47    0.0   0.79    0.54    0.54    0.43    0.22    0.12    0.06    0.02    0.00    0.00    0.00      187      60
 2011 139    48    33    8.6      3  2.991    721    615      0    204   1336   1340      0     0.0  0.000      4      5  0.000  0.000  0.000  0.000  0.000  0.000  0.000    3.91   0.00   0.00      0      4  414.9   0.55   0.48    0.0   0.81    0.57    0.57    0.45    0.23    0.13    0.07    0.03    0.00    0.00    0.00      209      64
 2011 140    49    34    8.9      3  3.126    776    687      0    216   1463   1482      0     0.0  0.000     18     18  0.000  0.000  0.000  0.000  0.000  0.000  0.000    3.91   0.00   0.01      0     18  403.0   0.58   0.50    0.0   0.82    0.59    0.59    0.47    0.25    0.14    0.07    0.03    0.00    0.00    0.00      231      68
 2011 141    50    35    9.2      3  3.240    825    758      0    227   1583   1627      0     0.0  0.000     44     31  0.000  0.000  0.000  0.000  0.000  0.000  0.000    3.91   0.00   0.03      0     44  392.9   0.61   0.52    0.0   0.84    0.62    0.62    0.48    0.26    0.15    0.08    0.04    0.00    0.00    0.00      253      73
 2011 142    51    36    9.4      3  3.334    868    826      0    237   1695   1776      0     0.0  0.000     82     45  0.000  0.000  0.000  0.000  0.000  0.000  0.000    3.89   0.00   0.05      0     82  383.9   0.64   0.54    0.0   0.86    0.64    0.64    0.50    0.27    0.16    0.08    0.04    0.00    0.00    0.00      274      77
 2011 143    52    37    9.7      3  3.406    910    895      0    245   1805   1936      0     0.0  0.000    130     59  0.000  0.000  0.000  0.000  0.000  0.000  0.000    3.88   0.00   0.07      0    130  374.2   0.68   0.55    0.0   0.87    0.66    0.66    0.51    0.28    0.17    0.09    0.05    0.00    0.00    0.00      292      82
 2011 144    53    38   10.0      3  3.458    948    962      0    253   1910   2100      0     0.0  0.000    190     74  0.000  0.000  0.000  0.000  0.000  0.000  0.000    3.86   0.00   0.09      0    190  364.9   0.71   0.57    0.0   0.89    0.68    0.68    0.53    0.29    0.18    0.09    0.05    0.00    0.00    0.00      311      88
 2011 145    54    39   10.3      5  3.491    977   1021      0    259   1998   2261      0     0.0  0.000    263     89  0.000  0.000  0.000  0.000  0.000  0.000  0.000    3.84   0.00   0.12      0    263  357.4   0.75   0.58    0.0   0.91    0.69    0.69    0.53    0.30    0.18    0.10    0.05    0.01    0.00    0.00      328      93
 2011 146    55    40   10.7      5  3.514   1004   1077      0    264   2081   2426     16     0.0  0.000    345    104  0.000  0.000  0.000  0.000  0.000  0.000  0.000    3.81   0.00   0.14      0    345  350.1   0.78   0.59    0.0   0.92    0.70    0.70    0.54    0.30    0.19    0.10    0.05    0.01    0.00    0.00      344      99
 2011 147    56    41   11.0      5  3.518   1024   1126      6    267   2150   2588     57    10.4  0.002    438    119  0.000  0.000  0.000  0.000  0.000  0.000  0.000    3.78   1.36   0.17      0    438  343.7   0.82   0.60    0.0   0.94    0.70    0.70    0.54    0.31    0.19    0.10    0.06    0.01    0.00    0.00      363     105
 2011 148    57    42   11.0      5  3.502   1034   1162     28    268   2196   2747    101    27.9  0.010    551    133  0.000  0.000  0.000  0.000  0.000  0.000  0.000    3.76   5.10   0.20      0    551  338.7   0.86   0.60    0.0   0.96    0.70    0.70    0.55    0.31    0.19    0.10    0.06    0.01    0.00    0.00      383     110
 2011 149    58    43   11.0      5  3.467   1035   1186     67    267   2221   2902    147    45.6  0.023    681    149  0.000  0.000  0.000  0.000  0.000  0.000  0.000    3.74   9.82   0.23      0    681  335.1   0.89   0.60    0.0   0.97    0.70    0.70    0.54    0.31    0.19    0.10    0.06    0.01    0.00    0.00      404     116
 2011 150    59    44   11.0      5  3.415   1028   1200    123    265   2227   3050    243    50.5  0.040    823    163  0.000  0.000  0.000  0.000  0.000  0.000  0.000    3.70  14.94   0.27      0    823  332.4   0.93   0.60    0.0   0.99    0.69    0.69    0.54    0.31    0.19    0.10    0.06    0.01    0.00    0.00      432     122
 2011 151    60    45   11.0      5  3.346   1006   1190    215    260   2196   3202    292    73.7  0.067   1006    177  0.000  0.000  0.000  0.000  0.000  0.000  0.000    3.65  21.42   0.31      0   1006  332.5   0.93   0.60    0.0   1.00    0.68    0.68    0.53    0.30    0.19    0.10    0.06    0.01    0.00    0.00      456     127
 2011 152    61    46   11.0      5  3.264    978   1172    329    254   2150   3339    343    96.1  0.099   1189    192  0.000  0.000  0.000  0.000  0.000  0.000  0.000    3.59  27.71   0.36      0   1189  333.7   0.93   0.60    0.0   1.00    0.67    0.67    0.52    0.29    0.18    0.10    0.06    0.01    0.00    0.00      480     133
 2011 153    62    47   11.0      5  3.183    951   1154    466    248   2105   3467    343   135.9  0.134   1362    207  0.000  0.000  0.000  0.000  0.000  0.000  0.000    3.52  34.19   0.39      0   1362  334.8   0.93   0.60    0.0   1.00    0.65    0.65    0.51    0.29    0.18    0.10    0.06    0.01    0.00    0.00      500     138
 2011 154    63    48   11.0      5  3.096    921   1136    600    242   2057   3602    394   152.3  0.167   1545    217  0.000  0.000  0.000  0.000  0.000  0.000  0.000    3.45  38.87   0.43      0   1545  336.0   0.93   0.60    0.0   1.00    0.64    0.64    0.50    0.28    0.18    0.09    0.05    0.01    0.00    0.00      526     143
 2011 155    64    49   11.0      5  3.007    892   1118    757    237   2009   3730    447   169.3  0.203   1721    226  0.000  0.000  0.000  0.000  0.000  0.000  0.000    3.36  43.98   0.46      0   1721  337.3   0.93   0.60    0.0   1.00    0.63    0.63    0.49    0.28    0.17    0.09    0.05    0.01    0.00    0.00      551     148
 2011 156    65    50   11.0      5  2.910    860   1099    926    231   1959   3874    501   184.8  0.239   1914    230  0.000  0.000  0.000  0.000  0.000  0.000  0.000    3.27  48.37   0.49      0   1914  338.4   0.93   0.60    0.0   1.02    0.61    0.61    0.48    0.27    0.17    0.09    0.05    0.01    0.00    0.00      578     153
 2011 157    66    51   11.0      7  2.809    829   1083   1113    226   1912   4013    551   202.0  0.277   2101    232  0.000  0.000  0.000  0.000  0.000  0.000  0.000    3.16  52.98   0.52      0   2101  339.1   0.93   0.60    0.0   1.04    0.60    0.60    0.47    0.27    0.17    0.09    0.05    0.01    0.00    0.00      611     158
 2011 158    67    52   11.0      7  2.074    609   1011   1321    221   1621   3895    577   228.9  0.339   2275    224  0.000  0.000  0.000  0.000  0.000  0.000  0.000    2.96  58.05   0.58      0   2275  340.3   0.93   0.60    0.0   1.04    0.59    0.59    0.46    0.26    0.16    0.09    0.05    0.01    0.00    0.00      903     163
 2011 159    68    53   11.0      7  1.533    450    959   1490    216   1409   3843    577   258.1  0.388   2434    208  0.000  0.000  0.000  0.000  0.000  0.000  0.000    2.78  61.19   0.63      0   2434  340.9   0.93   0.60    0.0   1.04    0.58    0.58    0.45    0.25    0.16    0.08    0.05    0.01    0.00    0.00     1102     168
 2011 160    69    54   11.0      7  1.135    332    921   1623    211   1253   3813    577   281.3  0.426   2560    193  0.000  0.000  0.000  0.000  0.000  0.000  0.000    2.60  63.41   0.67      0   2560  341.3   0.93   0.60    0.0   1.04    0.56    0.56    0.44    0.25    0.16    0.08    0.05    0.01    0.00    0.00     1248     173
 2011 161    70    55   11.0      7  0.841    246    894   1724    206   1140   3794    577   298.7  0.454   2654    173  0.000  0.000  0.000  0.000  0.000  0.000  0.000    2.44  64.97   0.70      0   2654  341.2   0.93   0.60    0.0   1.04    0.55    0.55    0.43    0.24    0.15    0.08    0.05    0.01    0.00    0.00     1356     177
 2011 162    71    56   11.0      7  0.624    183    871   1802    201   1054   3778    577   312.2  0.477   2724    168  0.000  0.000  0.000  0.000  0.000  0.000  0.000    2.30  66.14   0.72      0   2724  341.8   0.93   0.60    0.0   1.04    0.54    0.54    0.42    0.24    0.15    0.08    0.05    0.01    0.00    0.00     1436     182
 2011 163    72    57   11.0      7  0.463    135    854   1859    196    989   3764    577   322.1  0.494   2775    165  0.000  0.000  0.000  0.000  0.000  0.000  0.000    2.17  66.99   0.74      0   2775  342.5   0.93   0.60    0.0   1.04    0.53    0.53    0.41    0.23    0.15    0.08    0.04    0.01    0.00    0.00     1495     186
 2011 164    73    58   11.0      7  0.345    100    838   1902    192    938   3749    577   329.5  0.507   2811    165  0.000  0.000  0.000  0.000  0.000  0.000  0.000    2.06  67.65   0.75      0   2811  343.7   0.93   0.60    0.0   1.04    0.52    0.52    0.40    0.23    0.14    0.08    0.04    0.01    0.00    0.00     1539     190
 2011 165    74    59   11.0      7  0.257     74    824   1931    187    898   3732    577   334.6  0.517   2834    165  0.000  0.000  0.000  0.000  0.000  0.000  0.000    1.98  68.13   0.76      0   2834  345.2   0.93   0.60    0.0   1.04    0.50    0.50    0.39    0.22    0.14    0.07    0.04    0.01    0.00    0.00     1572     195
 2011 166    75    60   11.0      8  0.192     55    813   1949    183    868   3716    577   337.6  0.524   2847    165  0.000  0.000  0.000  0.000  0.000  0.000  0.000    1.93  68.43   0.77      0   2847  346.7   0.93   0.60    0.0   1.06    0.49    0.49    0.38    0.22    0.14    0.07    0.04    0.01    0.00    0.00     1596     199
