*SIMULATION OVERVIEW FILE

*DSSAT Cropping System Model Ver. 4.6.1.000 -release      JUL 11, 2017; 16:24:53
                                                                                
*RUN   1        : SIM                       CRGRO046 7\000007    1              
 MODEL          : CRGRO046 - Dry bean                                           
 EXPERIMENT     : 7\000007 BN PALMIRA_ANALISIS SENSIBILIDAD                     
 DATA PATH      : D:\B\0\00000                                                  
 TREATMENT  1   : SIM                       CRGRO046                            
                                                                                
                                                                                
 CROP           : Dry bean         CULTIVAR : Jatu Rong        ECOTYPE :ANDIND  
 STARTING DATE  : APR  1 1980                                                   
 PLANTING DATE  : AUTOMATIC PLANTING PLANTS/m2 : 26.6     ROW SPACING :  60.cm  
 WEATHER        : PALM   1980                                                   
 SOIL           : CCPA000030     TEXTURE : C     -   Silty Clay Loam            
 WATER BALANCE  : NOT SIMULATED ; NO H2O-STRESS                                 
 IRRIGATION     :                                                               
 NITROGEN BAL.  : NOT SIMULATED ; NO N-STRESS                                   
 N-FERTILIZER   :                                                               
 RESIDUE/MANURE :                                                               
 ENVIRONM. OPT. : DAYL=    0.00  SRAD=    0.00  TMAX=    0.00  TMIN=    0.00    
                  RAIN=    0.00  CO2 =    0.00  DEW =    0.00  WIND=    0.00    
 SIMULATION OPT : WATER   :N  NITROGEN:N  N-FIX:N  PHOSPH :N  PESTS  :N         
                  PHOTO   :L  ET      :R  INFIL:S  HYDROL :R  SOM    :G         
                  CO2 338ppm  NSWIT   :1  EVAP :S  SOIL   :2  STEMP  :D         
 MANAGEMENT OPT : PLANTING:A  IRRIG   :A  FERT :D  RESIDUE:N  HARVEST:M         
                  WEATHER :M  TILLAGE :N                                        
                                                                                
*SUMMARY OF SOIL AND GENETIC INPUT PARAMETERS                                   
                                                                                
 Dry bean   CULTIVAR :000007-Jatu Rong          ECOTYPE :ANDIND                 
 CSDVAR :12.17  PPSEN  : 0.05  EMG-FLW:24.00  FLW-FSD: 9.00  FSD-PHM : 11.00    
 WTPSD  :0.600  SDPDVR : 3.50  SDFDUR :15.00  PODDUR :10.00  XFRUIT  :  1.00    
 THRESH : 78.0  SDPRO  :0.235  SDLIP   : 0.030                                  


*SIMULATED CROP AND SOIL STATUS AT MAIN DEVELOPMENT STAGES

 RUN NO.     1     SIM                     

        CROP GROWTH     BIOMASS         LEAF   CROP N     STRESS      STRESS                                           
   DATE  AGE STAGE        kg/ha    LAI   NUM  kg/ha  %   H2O  Nitr Phos1 Phos2  RSTG                                   
 ------  --- ----------   -----  -----  ----  ---  ---  ----  ----  ----  ----  ----                                   
  1 APR    0 Start Sim        0   0.00   0.0    0  0.0  0.00  0.00  0.00  0.00     0
 15 APR    0 Sowing           0   0.00   0.0    0  0.0  0.00  0.00  0.00  0.00     0
 20 APR    5 Emergence       44   0.08   0.2    1  3.4  0.00  0.00  0.00  0.00     0
 20 APR    5 End Juven.      44   0.08   0.2    1  3.4  0.00  0.00  0.00  0.00     0
 23 APR    8 Unifoliate      49   0.09   1.1    2  3.3  0.00  0.64  0.00  0.00     0
 25 APR   10 Flower Ind      56   0.10   1.7    2  3.2  0.00  0.41  0.00  0.00     0
 15 MAY   30 First Flwr     888   2.34   7.7   28  3.2  0.00  0.01  0.00  0.00     1
 18 MAY   33 First Pod     1207   2.86   8.5   38  3.1  0.00  0.00  0.00  0.00     3
 25 MAY   40 First Seed    2183   3.49  10.7   65  3.0  0.00  0.00  0.00  0.00     5
 27 MAY   42 End Msnode    2474   3.49  11.3   73  3.0  0.00  0.00  0.00  0.00     5
  1 JUN   47 End Pod       3156   3.21  11.3   93  2.9  0.00  0.00  0.00  0.00     5
  4 JUN   50 End Leaf      3545   2.98  11.3  103  2.9  0.00  0.00  0.00  0.00     5
  7 JUN   53 Phys. Mat     3926   2.70  11.3  112  2.8  0.00  0.00  0.00  0.00     7
 16 JUN   62 Harv. Mat     3623   0.19  11.3  103  2.8  0.00  0.00  0.00  0.00     8
 16 JUN   62 Harvest       3623   0.19  11.3  103  2.8  0.00  0.00  0.00  0.00     8


*MAIN GROWTH AND DEVELOPMENT VARIABLES

@     VARIABLE                                         SIMULATED     MEASURED
      --------                                         ---------     --------
      Anthesis day (dap)                                      30          -99
      First pod day (dap)                                     33          -99
      First seed day (dap)                                    40          -99
      Physiological maturity day (dap)                        53          -99
      Yield at harvest maturity (kg [dm]/ha)                2000          -99
      Pod/Ear/Panicle weight at maturity (kg [dm]/ha)       2850          -99
      Number at maturity (no/m2)                             545          -99
      Unit wt at maturity (g [dm]/unit)                   0.3672          -99
      Number at maturity (no/unit)                          3.50          -99
      Tops weight at maturity (kg [dm]/ha)                  3623          -99
      By-product produced (stalk) at maturity (kg[dm]/ha    1620          -99
      Leaf area index, maximum                              3.50          -99
      Harvest index at maturity                            0.552          -99
      Threshing % at maturity                              70.18          -99
      Grain N at maturity (kg/ha)                             76          -99
      Tops N at maturity (kg/ha)                             103          -99
      Stem N at maturity (kg/ha)                               9          -99
      Grain N at maturity (%)                               3.78          -99
      Tops weight at anthesis (kg [dm]/ha)                   888          -99
      Tops N at anthesis (kg/ha)                              28          -99
      Leaf number per stem at maturity                     11.26          -99
      Grain oil at maturity (%)                             2.87          -99
      Canopy height (m)                                     0.97          -99
      Harvest maturity day (dap)                              62          -99
      Emergence day (dap)                                      5          -99


*ENVIRONMENTAL AND STRESS FACTORS

 |-----Development Phase------|--------------------------------------Environment--------------------------------------|-----------------Stress-----------------|
                              |---------------Average--------------|-----Cumulative-----|--------Count of days--------|          (0=Min, 1=Max Stress)         |
                         Time  Temp  Temp  Temp Solar Photop                Evapo    Pot TMIN TMIN TMAX TMAX TMAX RAIN|----Water----|---Nitrogen--|-Phosphorus-|
                         Span   Max   Min  Mean   Rad  [day]    CO2   Rain  Trans     ET   <    <    >    >    >    >   Photo         Photo         Photo
                         days    øC    øC    øC MJ/m2     hr    ppm     mm     mm     mm  0øC  2øC 30øC 32øC 34øC  0mm  synth Growth  synth Growth  synth Growth
----------------------------------------------------------------------------------------------------------------------------------------------------------------
 Emergence -First Flower   25  29.6  19.5  24.6  18.5  12.13  338.3   54.2    0.0    0.0    0    0   12    2    0   12  0.000  0.000  0.000  0.118  0.000  0.000
 First Flower-First Seed   10  30.4  19.5  24.9  18.8  12.17  338.5   34.9    0.0    0.0    0    0    6    0    0    4  0.000  0.000  0.000  0.000  0.000  0.000
 First Seed - Phys. Mat.   13  28.9  19.2  24.0  17.5  12.19  338.5    8.8    0.0    0.0    0    0    4    0    0    6  0.000  0.000  0.000  0.000  0.000  0.000
 Emergence  - Phys. Mat.   48  29.6  19.4  24.5  18.3  12.16  338.4   97.9    0.0    0.0    0    0   22    2    0   22  0.000  0.000  0.000  0.062  0.000  0.000


 Planting to Harvest       76  29.6  19.3  24.5  18.6  12.14  338.4  209.4    0.0    0.0    0    0   38    2    0   29  0.000  0.000  0.000  0.039  0.000  0.000
----------------------------------------------------------------------------------------------------------------------------------------------------------------

--------------------------------------------------------------------------------------------------------------

                  Dry bean YIELD :     2000 kg/ha    [Dry weight] 

**************************************************************************************************************

*DSSAT Cropping System Model Ver. 4.6.1.000 -release      JUL 11, 2017; 16:24:53
                                                                                
*RUN   2        : SIM                       CRGRO046 7\000007    1              
 MODEL          : CRGRO046 - Dry bean                                           
 EXPERIMENT     : 7\000007 BN PALMIRA_ANALISIS SENSIBILIDAD                     
 DATA PATH      : D:\B\0\00000                                                  
 TREATMENT  1   : SIM                       CRGRO046                            
                                                                                
                                                                                
 CROP           : Dry bean         CULTIVAR : Jatu Rong        ECOTYPE :ANDIND  
 STARTING DATE  : APR  2 1981                                                   
 PLANTING DATE  : APR 16 1981        PLANTS/m2 : 26.6     ROW SPACING :  60.cm  
 WEATHER        : PALM8034                                                      
 SOIL           : CCPA000030     TEXTURE : C     -   Silty Clay Loam            
 WATER BALANCE  : NOT SIMULATED ; NO H2O-STRESS                                 
 IRRIGATION     :                                                               
 NITROGEN BAL.  : NOT SIMULATED ; NO N-STRESS                                   
 N-FERTILIZER   :                                                               
 RESIDUE/MANURE :                                                               
 ENVIRONM. OPT. : DAYL=    0.00  SRAD=    0.00  TMAX=    0.00  TMIN=    0.00    
                  RAIN=    0.00  CO2 =    0.00  DEW =    0.00  WIND=    0.00    
 SIMULATION OPT : WATER   :N  NITROGEN:N  N-FIX:N  PHOSPH :N  PESTS  :N         
                  PHOTO   :L  ET      :R  INFIL:S  HYDROL :R  SOM    :G         
                  CO2 340ppm  NSWIT   :1  EVAP :S  SOIL   :2  STEMP  :D         
 MANAGEMENT OPT : PLANTING:A  IRRIG   :A  FERT :D  RESIDUE:N  HARVEST:M         
                  WEATHER :M  TILLAGE :N                                        
                                                                                
*SUMMARY OF SOIL AND GENETIC INPUT PARAMETERS                                   
                                                                                
 Dry bean   CULTIVAR :000007-Jatu Rong          ECOTYPE :ANDIND                 
 CSDVAR :12.17  PPSEN  : 0.05  EMG-FLW:24.00  FLW-FSD: 9.00  FSD-PHM : 11.00    
 WTPSD  :0.600  SDPDVR : 3.50  SDFDUR :15.00  PODDUR :10.00  XFRUIT  :  1.00    
 THRESH : 78.0  SDPRO  :0.235  SDLIP   : 0.030                                  


*SIMULATED CROP AND SOIL STATUS AT MAIN DEVELOPMENT STAGES

 RUN NO.     2     SIM                     

        CROP GROWTH     BIOMASS         LEAF   CROP N     STRESS      STRESS                                           
   DATE  AGE STAGE        kg/ha    LAI   NUM  kg/ha  %   H2O  Nitr Phos1 Phos2  RSTG                                   
 ------  --- ----------   -----  -----  ----  ---  ---  ----  ----  ----  ----  ----                                   
  2 APR    0 Start Sim        0   0.00   0.0    0  0.0  0.00  0.00  0.00  0.00     0
 16 APR    0 Sowing           0   0.00   0.0    0  0.0  0.00  0.00  0.00  0.00     0
 21 APR    5 Emergence       44   0.08   0.2    1  3.4  0.00  0.00  0.00  0.00     0
 21 APR    5 End Juven.      44   0.08   0.2    1  3.4  0.00  0.00  0.00  0.00     0
 24 APR    8 Unifoliate      48   0.09   1.1    2  3.3  0.00  0.66  0.00  0.00     0
 26 APR   10 Flower Ind      54   0.10   1.7    2  3.2  0.00  0.47  0.00  0.00     0
 17 MAY   31 First Flwr     909   2.37   7.6   29  3.2  0.00  0.01  0.00  0.00     1
 20 MAY   34 First Pod     1230   2.87   8.5   39  3.1  0.00  0.00  0.00  0.00     3
 27 MAY   41 First Seed    2188   3.48  10.6   65  3.0  0.00  0.00  0.00  0.00     5
 29 MAY   43 End Msnode    2484   3.49  11.2   73  2.9  0.00  0.00  0.00  0.00     5
  3 JUN   48 End Pod       3176   3.22  11.2   92  2.9  0.00  0.00  0.00  0.00     5
  6 JUN   51 End Leaf      3575   2.96  11.2  102  2.9  0.00  0.00  0.00  0.00     5
  8 JUN   53 Phys. Mat     3818   2.78  11.2  107  2.8  0.00  0.00  0.00  0.00     7
 17 JUN   62 Harv. Mat     3464   0.19  11.2   96  2.8  0.00  0.00  0.00  0.00     8
 17 JUN   62 Harvest       3464   0.19  11.2   96  2.8  0.00  0.00  0.00  0.00     8


*MAIN GROWTH AND DEVELOPMENT VARIABLES

@     VARIABLE                                         SIMULATED     MEASURED
      --------                                         ---------     --------
      Anthesis day (dap)                                      31          -99
      First pod day (dap)                                     34          -99
      First seed day (dap)                                    41          -99
      Physiological maturity day (dap)                        53          -99
      Yield at harvest maturity (kg [dm]/ha)                1772          -99
      Pod/Ear/Panicle weight at maturity (kg [dm]/ha)       2665          -99
      Number at maturity (no/m2)                             578          -99
      Unit wt at maturity (g [dm]/unit)                   0.3066          -99
      Number at maturity (no/unit)                          3.50          -99
      Tops weight at maturity (kg [dm]/ha)                  3464          -99
      By-product produced (stalk) at maturity (kg[dm]/ha    1690          -99
      Leaf area index, maximum                              3.49          -99
      Harvest index at maturity                            0.511          -99
      Threshing % at maturity                              66.48          -99
      Grain N at maturity (kg/ha)                             67          -99
      Tops N at maturity (kg/ha)                              96          -99
      Stem N at maturity (kg/ha)                               9          -99
      Grain N at maturity (%)                               3.76          -99
      Tops weight at anthesis (kg [dm]/ha)                   909          -99
      Tops N at anthesis (kg/ha)                              29          -99
      Leaf number per stem at maturity                     11.16          -99
      Grain oil at maturity (%)                             2.89          -99
      Canopy height (m)                                     0.95          -99
      Harvest maturity day (dap)                              62          -99
      Emergence day (dap)                                      5          -99


*ENVIRONMENTAL AND STRESS FACTORS

 |-----Development Phase------|--------------------------------------Environment--------------------------------------|-----------------Stress-----------------|
                              |---------------Average--------------|-----Cumulative-----|--------Count of days--------|          (0=Min, 1=Max Stress)         |
                         Time  Temp  Temp  Temp Solar Photop                Evapo    Pot TMIN TMIN TMAX TMAX TMAX RAIN|----Water----|---Nitrogen--|-Phosphorus-|
                         Span   Max   Min  Mean   Rad  [day]    CO2   Rain  Trans     ET   <    <    >    >    >    >   Photo         Photo         Photo
                         days    øC    øC    øC MJ/m2     hr    ppm     mm     mm     mm  0øC  2øC 30øC 32øC 34øC  0mm  synth Growth  synth Growth  synth Growth
----------------------------------------------------------------------------------------------------------------------------------------------------------------
 Emergence -First Flower   26  28.1  19.0  23.5  17.5  12.13  339.7  113.0    0.0    0.0    0    0    1    0    0   19  0.000  0.000  0.000  0.123  0.000  0.000
 First Flower-First Seed   10  29.1  19.1  24.1  18.0  12.18  339.8   77.4    0.0    0.0    0    0    4    0    0    6  0.000  0.000  0.000  0.000  0.000  0.000
 First Seed - Phys. Mat.   12  28.8  19.5  24.1  17.1  12.19  339.8   32.3    0.0    0.0    0    0    3    0    0    5  0.000  0.000  0.000  0.000  0.000  0.000
 Emergence  - Phys. Mat.   48  28.4  19.1  23.8  17.5  12.16  339.8  222.7    0.0    0.0    0    0    8    0    0   30  0.000  0.000  0.000  0.067  0.000  0.000


 Planting to Harvest       76  28.6  19.2  23.9  17.7  12.14  339.8  405.1    0.0    0.0    0    0   15    0    0   46  0.000  0.000  0.000  0.042  0.000  0.000
----------------------------------------------------------------------------------------------------------------------------------------------------------------

--------------------------------------------------------------------------------------------------------------

                  Dry bean YIELD :     1772 kg/ha    [Dry weight] 

**************************************************************************************************************

*DSSAT Cropping System Model Ver. 4.6.1.000 -release      JUL 11, 2017; 16:24:53
                                                                                
*RUN   3        : SIM                       CRGRO046 7\000007    1              
 MODEL          : CRGRO046 - Dry bean                                           
 EXPERIMENT     : 7\000007 BN PALMIRA_ANALISIS SENSIBILIDAD                     
 DATA PATH      : D:\B\0\00000                                                  
 TREATMENT  1   : SIM                       CRGRO046                            
                                                                                
                                                                                
 CROP           : Dry bean         CULTIVAR : Jatu Rong        ECOTYPE :ANDIND  
 STARTING DATE  : APR  2 1982                                                   
 PLANTING DATE  : APR 16 1982        PLANTS/m2 : 26.6     ROW SPACING :  60.cm  
 WEATHER        : PALM8034                                                      
 SOIL           : CCPA000030     TEXTURE : C     -   Silty Clay Loam            
 WATER BALANCE  : NOT SIMULATED ; NO H2O-STRESS                                 
 IRRIGATION     :                                                               
 NITROGEN BAL.  : NOT SIMULATED ; NO N-STRESS                                   
 N-FERTILIZER   :                                                               
 RESIDUE/MANURE :                                                               
 ENVIRONM. OPT. : DAYL=    0.00  SRAD=    0.00  TMAX=    0.00  TMIN=    0.00    
                  RAIN=    0.00  CO2 =    0.00  DEW =    0.00  WIND=    0.00    
 SIMULATION OPT : WATER   :N  NITROGEN:N  N-FIX:N  PHOSPH :N  PESTS  :N         
                  PHOTO   :L  ET      :R  INFIL:S  HYDROL :R  SOM    :G         
                  CO2 341ppm  NSWIT   :1  EVAP :S  SOIL   :2  STEMP  :D         
 MANAGEMENT OPT : PLANTING:A  IRRIG   :A  FERT :D  RESIDUE:N  HARVEST:M         
                  WEATHER :M  TILLAGE :N                                        
                                                                                
*SUMMARY OF SOIL AND GENETIC INPUT PARAMETERS                                   
                                                                                
 Dry bean   CULTIVAR :000007-Jatu Rong          ECOTYPE :ANDIND                 
 CSDVAR :12.17  PPSEN  : 0.05  EMG-FLW:24.00  FLW-FSD: 9.00  FSD-PHM : 11.00    
 WTPSD  :0.600  SDPDVR : 3.50  SDFDUR :15.00  PODDUR :10.00  XFRUIT  :  1.00    
 THRESH : 78.0  SDPRO  :0.235  SDLIP   : 0.030                                  


*SIMULATED CROP AND SOIL STATUS AT MAIN DEVELOPMENT STAGES

 RUN NO.     3     SIM                     

        CROP GROWTH     BIOMASS         LEAF   CROP N     STRESS      STRESS                                           
   DATE  AGE STAGE        kg/ha    LAI   NUM  kg/ha  %   H2O  Nitr Phos1 Phos2  RSTG                                   
 ------  --- ----------   -----  -----  ----  ---  ---  ----  ----  ----  ----  ----                                   
  2 APR    0 Start Sim        0   0.00   0.0    0  0.0  0.00  0.00  0.00  0.00     0
 16 APR    0 Sowing           0   0.00   0.0    0  0.0  0.00  0.00  0.00  0.00     0
 21 APR    5 Emergence       44   0.08   0.2    1  3.4  0.00  0.00  0.00  0.00     0
 21 APR    5 End Juven.      44   0.08   0.2    1  3.4  0.00  0.00  0.00  0.00     0
 24 APR    8 Unifoliate      49   0.09   1.1    2  3.3  0.00  0.65  0.00  0.00     0
 26 APR   10 Flower Ind      55   0.10   1.7    2  3.2  0.00  0.44  0.00  0.00     0
 17 MAY   31 First Flwr     966   2.42   7.9   31  3.2  0.00  0.01  0.00  0.00     1
 19 MAY   33 First Pod     1182   2.78   8.5   37  3.1  0.00  0.00  0.00  0.00     3
 27 MAY   41 First Seed    2231   3.50  10.8   66  3.0  0.00  0.00  0.00  0.00     5
 29 MAY   43 End Msnode    2525   3.50  11.3   74  2.9  0.00  0.00  0.00  0.00     5
  2 JUN   47 End Pod       3090   3.30  11.3   89  2.9  0.00  0.00  0.00  0.00     5
  5 JUN   50 End Leaf      3467   3.05  11.3   98  2.8  0.00  0.00  0.00  0.00     5
  8 JUN   53 Phys. Mat     3846   2.77  11.3  107  2.8  0.00  0.00  0.00  0.00     7
 17 JUN   62 Harv. Mat     3533   0.19  11.3   98  2.8  0.00  0.00  0.00  0.00     8
 17 JUN   62 Harvest       3533   0.19  11.3   98  2.8  0.00  0.00  0.00  0.00     8


*MAIN GROWTH AND DEVELOPMENT VARIABLES

@     VARIABLE                                         SIMULATED     MEASURED
      --------                                         ---------     --------
      Anthesis day (dap)                                      31          -99
      First pod day (dap)                                     33          -99
      First seed day (dap)                                    41          -99
      Physiological maturity day (dap)                        53          -99
      Yield at harvest maturity (kg [dm]/ha)                1856          -99
      Pod/Ear/Panicle weight at maturity (kg [dm]/ha)       2681          -99
      Number at maturity (no/m2)                             535          -99
      Unit wt at maturity (g [dm]/unit)                   0.3469          -99
      Number at maturity (no/unit)                          3.50          -99
      Tops weight at maturity (kg [dm]/ha)                  3533          -99
      By-product produced (stalk) at maturity (kg[dm]/ha    1680          -99
      Leaf area index, maximum                              3.51          -99
      Harvest index at maturity                            0.525          -99
      Threshing % at maturity                              69.21          -99
      Grain N at maturity (kg/ha)                             71          -99
      Tops N at maturity (kg/ha)                              98          -99
      Stem N at maturity (kg/ha)                               9          -99
      Grain N at maturity (%)                               3.80          -99
      Tops weight at anthesis (kg [dm]/ha)                   966          -99
      Tops N at anthesis (kg/ha)                              31          -99
      Leaf number per stem at maturity                     11.33          -99
      Grain oil at maturity (%)                             2.88          -99
      Canopy height (m)                                     0.98          -99
      Harvest maturity day (dap)                              62          -99
      Emergence day (dap)                                      5          -99


*ENVIRONMENTAL AND STRESS FACTORS

 |-----Development Phase------|--------------------------------------Environment--------------------------------------|-----------------Stress-----------------|
                              |---------------Average--------------|-----Cumulative-----|--------Count of days--------|          (0=Min, 1=Max Stress)         |
                         Time  Temp  Temp  Temp Solar Photop                Evapo    Pot TMIN TMIN TMAX TMAX TMAX RAIN|----Water----|---Nitrogen--|-Phosphorus-|
                         Span   Max   Min  Mean   Rad  [day]    CO2   Rain  Trans     ET   <    <    >    >    >    >   Photo         Photo         Photo
                         days    øC    øC    øC MJ/m2     hr    ppm     mm     mm     mm  0øC  2øC 30øC 32øC 34øC  0mm  synth Growth  synth Growth  synth Growth
----------------------------------------------------------------------------------------------------------------------------------------------------------------
 Emergence -First Flower   26  29.5  19.4  24.5  18.5  12.13  340.9   57.5    0.0    0.0    0    0   11    2    0    8  0.000  0.000  0.000  0.116  0.000  0.000
 First Flower-First Seed   10  27.3  19.0  23.1  16.3  12.18  341.0   62.4    0.0    0.0    0    0    0    0    0    6  0.000  0.000  0.000  0.000  0.000  0.000
 First Seed - Phys. Mat.   12  29.2  19.7  24.5  17.3  12.19  341.0    7.2    0.0    0.0    0    0    3    0    0    3  0.000  0.000  0.000  0.000  0.000  0.000
 Emergence  - Phys. Mat.   48  29.0  19.4  24.2  17.8  12.16  340.9  127.1    0.0    0.0    0    0   14    2    0   17  0.000  0.000  0.000  0.063  0.000  0.000


 Planting to Harvest       76  29.1  19.3  24.2  18.0  12.14  340.9  260.9    0.0    0.0    0    0   22    2    0   29  0.000  0.000  0.000  0.040  0.000  0.000
----------------------------------------------------------------------------------------------------------------------------------------------------------------

--------------------------------------------------------------------------------------------------------------

                  Dry bean YIELD :     1856 kg/ha    [Dry weight] 

**************************************************************************************************************

*DSSAT Cropping System Model Ver. 4.6.1.000 -release      JUL 11, 2017; 16:24:53
                                                                                
*RUN   4        : SIM                       CRGRO046 7\000007    1              
 MODEL          : CRGRO046 - Dry bean                                           
 EXPERIMENT     : 7\000007 BN PALMIRA_ANALISIS SENSIBILIDAD                     
 DATA PATH      : D:\B\0\00000                                                  
 TREATMENT  1   : SIM                       CRGRO046                            
                                                                                
                                                                                
 CROP           : Dry bean         CULTIVAR : Jatu Rong        ECOTYPE :ANDIND  
 STARTING DATE  : APR  2 1983                                                   
 PLANTING DATE  : APR 16 1983        PLANTS/m2 : 26.6     ROW SPACING :  60.cm  
 WEATHER        : PALM8034                                                      
 SOIL           : CCPA000030     TEXTURE : C     -   Silty Clay Loam            
 WATER BALANCE  : NOT SIMULATED ; NO H2O-STRESS                                 
 IRRIGATION     :                                                               
 NITROGEN BAL.  : NOT SIMULATED ; NO N-STRESS                                   
 N-FERTILIZER   :                                                               
 RESIDUE/MANURE :                                                               
 ENVIRONM. OPT. : DAYL=    0.00  SRAD=    0.00  TMAX=    0.00  TMIN=    0.00    
                  RAIN=    0.00  CO2 =    0.00  DEW =    0.00  WIND=    0.00    
 SIMULATION OPT : WATER   :N  NITROGEN:N  N-FIX:N  PHOSPH :N  PESTS  :N         
                  PHOTO   :L  ET      :R  INFIL:S  HYDROL :R  SOM    :G         
                  CO2 342ppm  NSWIT   :1  EVAP :S  SOIL   :2  STEMP  :D         
 MANAGEMENT OPT : PLANTING:A  IRRIG   :A  FERT :D  RESIDUE:N  HARVEST:M         
                  WEATHER :M  TILLAGE :N                                        
                                                                                
*SUMMARY OF SOIL AND GENETIC INPUT PARAMETERS                                   
                                                                                
 Dry bean   CULTIVAR :000007-Jatu Rong          ECOTYPE :ANDIND                 
 CSDVAR :12.17  PPSEN  : 0.05  EMG-FLW:24.00  FLW-FSD: 9.00  FSD-PHM : 11.00    
 WTPSD  :0.600  SDPDVR : 3.50  SDFDUR :15.00  PODDUR :10.00  XFRUIT  :  1.00    
 THRESH : 78.0  SDPRO  :0.235  SDLIP   : 0.030                                  


*SIMULATED CROP AND SOIL STATUS AT MAIN DEVELOPMENT STAGES

 RUN NO.     4     SIM                     

        CROP GROWTH     BIOMASS         LEAF   CROP N     STRESS      STRESS                                           
   DATE  AGE STAGE        kg/ha    LAI   NUM  kg/ha  %   H2O  Nitr Phos1 Phos2  RSTG                                   
 ------  --- ----------   -----  -----  ----  ---  ---  ----  ----  ----  ----  ----                                   
  2 APR    0 Start Sim        0   0.00   0.0    0  0.0  0.00  0.00  0.00  0.00     0
 16 APR    0 Sowing           0   0.00   0.0    0  0.0  0.00  0.00  0.00  0.00     0
 21 APR    5 Emergence       44   0.08   0.2    1  3.4  0.00  0.00  0.00  0.00     0
 21 APR    5 End Juven.      44   0.08   0.2    1  3.4  0.00  0.00  0.00  0.00     0
 24 APR    8 Unifoliate      48   0.09   1.1    2  3.3  0.00  0.66  0.00  0.00     0
 26 APR   10 Flower Ind      55   0.10   1.7    2  3.2  0.00  0.43  0.00  0.00     0
 16 MAY   30 First Flwr     905   2.33   7.7   29  3.2  0.00  0.01  0.00  0.00     1
 19 MAY   33 First Pod     1227   2.86   8.6   38  3.1  0.00  0.00  0.00  0.00     3
 26 MAY   40 First Seed    2208   3.49  10.7   66  3.0  0.00  0.00  0.00  0.00     5
 28 MAY   42 End Msnode    2505   3.48  11.3   74  3.0  0.00  0.00  0.00  0.00     5
  2 JUN   47 End Pod       3205   3.22  11.3   93  2.9  0.00  0.00  0.00  0.00     5
  5 JUN   50 End Leaf      3583   2.96  11.3  102  2.9  0.00  0.00  0.00  0.00     5
  7 JUN   52 Phys. Mat     3846   2.77  11.3  109  2.8  0.00  0.00  0.00  0.00     7
 16 JUN   61 Harv. Mat     3515   0.19  11.3   98  2.8  0.00  0.00  0.00  0.00     8
 16 JUN   61 Harvest       3515   0.19  11.3   98  2.8  0.00  0.00  0.00  0.00     8


*MAIN GROWTH AND DEVELOPMENT VARIABLES

@     VARIABLE                                         SIMULATED     MEASURED
      --------                                         ---------     --------
      Anthesis day (dap)                                      30          -99
      First pod day (dap)                                     33          -99
      First seed day (dap)                                    40          -99
      Physiological maturity day (dap)                        52          -99
      Yield at harvest maturity (kg [dm]/ha)                1869          -99
      Pod/Ear/Panicle weight at maturity (kg [dm]/ha)       2701          -99
      Number at maturity (no/m2)                             540          -99
      Unit wt at maturity (g [dm]/unit)                   0.3462          -99
      Number at maturity (no/unit)                          3.50          -99
      Tops weight at maturity (kg [dm]/ha)                  3515          -99
      By-product produced (stalk) at maturity (kg[dm]/ha    1650          -99
      Leaf area index, maximum                              3.49          -99
      Harvest index at maturity                            0.532          -99
      Threshing % at maturity                              69.19          -99
      Grain N at maturity (kg/ha)                             70          -99
      Tops N at maturity (kg/ha)                              98          -99
      Stem N at maturity (kg/ha)                               9          -99
      Grain N at maturity (%)                               3.77          -99
      Tops weight at anthesis (kg [dm]/ha)                   905          -99
      Tops N at anthesis (kg/ha)                              29          -99
      Leaf number per stem at maturity                     11.30          -99
      Grain oil at maturity (%)                             2.90          -99
      Canopy height (m)                                     0.98          -99
      Harvest maturity day (dap)                              61          -99
      Emergence day (dap)                                      5          -99


*ENVIRONMENTAL AND STRESS FACTORS

 |-----Development Phase------|--------------------------------------Environment--------------------------------------|-----------------Stress-----------------|
                              |---------------Average--------------|-----Cumulative-----|--------Count of days--------|          (0=Min, 1=Max Stress)         |
                         Time  Temp  Temp  Temp Solar Photop                Evapo    Pot TMIN TMIN TMAX TMAX TMAX RAIN|----Water----|---Nitrogen--|-Phosphorus-|
                         Span   Max   Min  Mean   Rad  [day]    CO2   Rain  Trans     ET   <    <    >    >    >    >   Photo         Photo         Photo
                         days    øC    øC    øC MJ/m2     hr    ppm     mm     mm     mm  0øC  2øC 30øC 32øC 34øC  0mm  synth Growth  synth Growth  synth Growth
----------------------------------------------------------------------------------------------------------------------------------------------------------------
 Emergence -First Flower   25  29.7  19.8  24.8  18.4  12.13  342.3   53.9    0.0    0.0    0    0   12    0    0    9  0.000  0.000  0.000  0.122  0.000  0.000
 First Flower-First Seed   10  29.6  19.3  24.5  18.3  12.17  342.5   51.7    0.0    0.0    0    0    4    0    0    5  0.000  0.000  0.000  0.000  0.000  0.000
 First Seed - Phys. Mat.   12  29.2  19.5  24.4  17.5  12.19  342.5    9.1    0.0    0.0    0    0    3    0    0    4  0.000  0.000  0.000  0.000  0.000  0.000
 Emergence  - Phys. Mat.   47  29.6  19.6  24.6  18.1  12.16  342.4  114.7    0.0    0.0    0    0   19    0    0   18  0.000  0.000  0.000  0.065  0.000  0.000


 Planting to Harvest       75  29.5  19.6  24.6  18.2  12.14  342.4  227.8    0.0    0.0    0    0   28    0    0   36  0.000  0.000  0.000  0.041  0.000  0.000
----------------------------------------------------------------------------------------------------------------------------------------------------------------

--------------------------------------------------------------------------------------------------------------

                  Dry bean YIELD :     1869 kg/ha    [Dry weight] 

**************************************************************************************************************

*DSSAT Cropping System Model Ver. 4.6.1.000 -release      JUL 11, 2017; 16:24:53
                                                                                
*RUN   5        : SIM                       CRGRO046 7\000007    1              
 MODEL          : CRGRO046 - Dry bean                                           
 EXPERIMENT     : 7\000007 BN PALMIRA_ANALISIS SENSIBILIDAD                     
 DATA PATH      : D:\B\0\00000                                                  
 TREATMENT  1   : SIM                       CRGRO046                            
                                                                                
                                                                                
 CROP           : Dry bean         CULTIVAR : Jatu Rong        ECOTYPE :ANDIND  
 STARTING DATE  : APR  1 1984                                                   
 PLANTING DATE  : APR 15 1984        PLANTS/m2 : 26.6     ROW SPACING :  60.cm  
 WEATHER        : PALM8034                                                      
 SOIL           : CCPA000030     TEXTURE : C     -   Silty Clay Loam            
 WATER BALANCE  : NOT SIMULATED ; NO H2O-STRESS                                 
 IRRIGATION     :                                                               
 NITROGEN BAL.  : NOT SIMULATED ; NO N-STRESS                                   
 N-FERTILIZER   :                                                               
 RESIDUE/MANURE :                                                               
 ENVIRONM. OPT. : DAYL=    0.00  SRAD=    0.00  TMAX=    0.00  TMIN=    0.00    
                  RAIN=    0.00  CO2 =    0.00  DEW =    0.00  WIND=    0.00    
 SIMULATION OPT : WATER   :N  NITROGEN:N  N-FIX:N  PHOSPH :N  PESTS  :N         
                  PHOTO   :L  ET      :R  INFIL:S  HYDROL :R  SOM    :G         
                  CO2 344ppm  NSWIT   :1  EVAP :S  SOIL   :2  STEMP  :D         
 MANAGEMENT OPT : PLANTING:A  IRRIG   :A  FERT :D  RESIDUE:N  HARVEST:M         
                  WEATHER :M  TILLAGE :N                                        
                                                                                
*SUMMARY OF SOIL AND GENETIC INPUT PARAMETERS                                   
                                                                                
 Dry bean   CULTIVAR :000007-Jatu Rong          ECOTYPE :ANDIND                 
 CSDVAR :12.17  PPSEN  : 0.05  EMG-FLW:24.00  FLW-FSD: 9.00  FSD-PHM : 11.00    
 WTPSD  :0.600  SDPDVR : 3.50  SDFDUR :15.00  PODDUR :10.00  XFRUIT  :  1.00    
 THRESH : 78.0  SDPRO  :0.235  SDLIP   : 0.030                                  


*SIMULATED CROP AND SOIL STATUS AT MAIN DEVELOPMENT STAGES

 RUN NO.     5     SIM                     

        CROP GROWTH     BIOMASS         LEAF   CROP N     STRESS      STRESS                                           
   DATE  AGE STAGE        kg/ha    LAI   NUM  kg/ha  %   H2O  Nitr Phos1 Phos2  RSTG                                   
 ------  --- ----------   -----  -----  ----  ---  ---  ----  ----  ----  ----  ----                                   
  1 APR    0 Start Sim        0   0.00   0.0    0  0.0  0.00  0.00  0.00  0.00     0
 15 APR    0 Sowing           0   0.00   0.0    0  0.0  0.00  0.00  0.00  0.00     0
 20 APR    5 Emergence       44   0.08   0.2    1  3.4  0.00  0.00  0.00  0.00     0
 20 APR    5 End Juven.      44   0.08   0.2    1  3.4  0.00  0.00  0.00  0.00     0
 23 APR    8 Unifoliate      49   0.09   1.1    2  3.3  0.00  0.64  0.00  0.00     0
 25 APR   10 Flower Ind      55   0.10   1.7    2  3.2  0.00  0.45  0.00  0.00     0
 16 MAY   31 First Flwr     957   2.42   7.7   30  3.2  0.00  0.01  0.00  0.00     1
 19 MAY   34 First Pod     1289   2.94   8.6   40  3.1  0.00  0.00  0.00  0.00     3
 26 MAY   41 First Seed    2236   3.55  10.6   67  3.0  0.00  0.00  0.00  0.00     5
 28 MAY   43 End Msnode    2530   3.56  11.1   75  2.9  0.00  0.00  0.00  0.00     5
  2 JUN   48 End Pod       3254   3.32  11.1   95  2.9  0.00  0.00  0.00  0.00     5
  5 JUN   51 End Leaf      3652   3.06  11.1  105  2.9  0.00  0.00  0.00  0.00     5
  8 JUN   54 Phys. Mat     4033   2.79  11.1  113  2.8  0.00  0.00  0.00  0.00     7
 17 JUN   63 Harv. Mat     3727   0.19  11.1  104  2.8  0.00  0.00  0.00  0.00     8
 17 JUN   63 Harvest       3727   0.19  11.1  104  2.8  0.00  0.00  0.00  0.00     8


*MAIN GROWTH AND DEVELOPMENT VARIABLES

@     VARIABLE                                         SIMULATED     MEASURED
      --------                                         ---------     --------
      Anthesis day (dap)                                      31          -99
      First pod day (dap)                                     34          -99
      First seed day (dap)                                    41          -99
      Physiological maturity day (dap)                        54          -99
      Yield at harvest maturity (kg [dm]/ha)                1998          -99
      Pod/Ear/Panicle weight at maturity (kg [dm]/ha)       2897          -99
      Number at maturity (no/m2)                             569          -99
      Unit wt at maturity (g [dm]/unit)                   0.3511          -99
      Number at maturity (no/unit)                          3.50          -99
      Tops weight at maturity (kg [dm]/ha)                  3727          -99
      By-product produced (stalk) at maturity (kg[dm]/ha    1730          -99
      Leaf area index, maximum                              3.57          -99
      Harvest index at maturity                            0.536          -99
      Threshing % at maturity                              68.98          -99
      Grain N at maturity (kg/ha)                             75          -99
      Tops N at maturity (kg/ha)                             104          -99
      Stem N at maturity (kg/ha)                               9          -99
      Grain N at maturity (%)                               3.75          -99
      Tops weight at anthesis (kg [dm]/ha)                   957          -99
      Tops N at anthesis (kg/ha)                              30          -99
      Leaf number per stem at maturity                     11.14          -99
      Grain oil at maturity (%)                             2.87          -99
      Canopy height (m)                                     0.98          -99
      Harvest maturity day (dap)                              63          -99
      Emergence day (dap)                                      5          -99


*ENVIRONMENTAL AND STRESS FACTORS

 |-----Development Phase------|--------------------------------------Environment--------------------------------------|-----------------Stress-----------------|
                              |---------------Average--------------|-----Cumulative-----|--------Count of days--------|          (0=Min, 1=Max Stress)         |
                         Time  Temp  Temp  Temp Solar Photop                Evapo    Pot TMIN TMIN TMAX TMAX TMAX RAIN|----Water----|---Nitrogen--|-Phosphorus-|
                         Span   Max   Min  Mean   Rad  [day]    CO2   Rain  Trans     ET   <    <    >    >    >    >   Photo         Photo         Photo
                         days    øC    øC    øC MJ/m2     hr    ppm     mm     mm     mm  0øC  2øC 30øC 32øC 34øC  0mm  synth Growth  synth Growth  synth Growth
----------------------------------------------------------------------------------------------------------------------------------------------------------------
 Emergence -First Flower   26  28.4  18.8  23.6  18.1  12.13  344.2   67.2    0.0    0.0    0    0    2    0    0   13  0.000  0.000  0.000  0.115  0.000  0.000
 First Flower-First Seed   10  27.8  18.8  23.3  17.0  12.18  344.3   41.3    0.0    0.0    0    0    1    0    0    8  0.000  0.000  0.000  0.000  0.000  0.000
 First Seed - Phys. Mat.   13  28.2  18.9  23.5  17.1  12.19  344.3   27.8    0.0    0.0    0    0    3    0    0    6  0.000  0.000  0.000  0.000  0.000  0.000
 Emergence  - Phys. Mat.   49  28.2  18.8  23.5  17.6  12.16  344.2  136.3    0.0    0.0    0    0    6    0    0   27  0.000  0.000  0.000  0.061  0.000  0.000


 Planting to Harvest       77  28.6  18.8  23.7  18.0  12.14  344.2  207.0    0.0    0.0    0    0   12    0    0   39  0.000  0.000  0.000  0.039  0.000  0.000
----------------------------------------------------------------------------------------------------------------------------------------------------------------

--------------------------------------------------------------------------------------------------------------

                  Dry bean YIELD :     1998 kg/ha    [Dry weight] 

**************************************************************************************************************

*DSSAT Cropping System Model Ver. 4.6.1.000 -release      JUL 11, 2017; 16:24:53
                                                                                
*RUN   6        : SIM                       CRGRO046 7\000007    1              
 MODEL          : CRGRO046 - Dry bean                                           
 EXPERIMENT     : 7\000007 BN PALMIRA_ANALISIS SENSIBILIDAD                     
 DATA PATH      : D:\B\0\00000                                                  
 TREATMENT  1   : SIM                       CRGRO046                            
                                                                                
                                                                                
 CROP           : Dry bean         CULTIVAR : Jatu Rong        ECOTYPE :ANDIND  
 STARTING DATE  : APR  2 1985                                                   
 PLANTING DATE  : APR 16 1985        PLANTS/m2 : 26.6     ROW SPACING :  60.cm  
 WEATHER        : PALM8034                                                      
 SOIL           : CCPA000030     TEXTURE : C     -   Silty Clay Loam            
 WATER BALANCE  : NOT SIMULATED ; NO H2O-STRESS                                 
 IRRIGATION     :                                                               
 NITROGEN BAL.  : NOT SIMULATED ; NO N-STRESS                                   
 N-FERTILIZER   :                                                               
 RESIDUE/MANURE :                                                               
 ENVIRONM. OPT. : DAYL=    0.00  SRAD=    0.00  TMAX=    0.00  TMIN=    0.00    
                  RAIN=    0.00  CO2 =    0.00  DEW =    0.00  WIND=    0.00    
 SIMULATION OPT : WATER   :N  NITROGEN:N  N-FIX:N  PHOSPH :N  PESTS  :N         
                  PHOTO   :L  ET      :R  INFIL:S  HYDROL :R  SOM    :G         
                  CO2 346ppm  NSWIT   :1  EVAP :S  SOIL   :2  STEMP  :D         
 MANAGEMENT OPT : PLANTING:A  IRRIG   :A  FERT :D  RESIDUE:N  HARVEST:M         
                  WEATHER :M  TILLAGE :N                                        
                                                                                
*SUMMARY OF SOIL AND GENETIC INPUT PARAMETERS                                   
                                                                                
 Dry bean   CULTIVAR :000007-Jatu Rong          ECOTYPE :ANDIND                 
 CSDVAR :12.17  PPSEN  : 0.05  EMG-FLW:24.00  FLW-FSD: 9.00  FSD-PHM : 11.00    
 WTPSD  :0.600  SDPDVR : 3.50  SDFDUR :15.00  PODDUR :10.00  XFRUIT  :  1.00    
 THRESH : 78.0  SDPRO  :0.235  SDLIP   : 0.030                                  


*SIMULATED CROP AND SOIL STATUS AT MAIN DEVELOPMENT STAGES

 RUN NO.     6     SIM                     

        CROP GROWTH     BIOMASS         LEAF   CROP N     STRESS      STRESS                                           
   DATE  AGE STAGE        kg/ha    LAI   NUM  kg/ha  %   H2O  Nitr Phos1 Phos2  RSTG                                   
 ------  --- ----------   -----  -----  ----  ---  ---  ----  ----  ----  ----  ----                                   
  2 APR    0 Start Sim        0   0.00   0.0    0  0.0  0.00  0.00  0.00  0.00     0
 16 APR    0 Sowing           0   0.00   0.0    0  0.0  0.00  0.00  0.00  0.00     0
 21 APR    5 Emergence       44   0.08   0.2    1  3.4  0.00  0.00  0.00  0.00     0
 21 APR    5 End Juven.      44   0.08   0.2    1  3.4  0.00  0.00  0.00  0.00     0
 24 APR    8 Unifoliate      48   0.09   1.1    2  3.3  0.00  0.66  0.00  0.00     0
 26 APR   10 Flower Ind      55   0.10   1.6    2  3.2  0.00  0.43  0.00  0.00     0
 17 MAY   31 First Flwr     968   2.44   7.7   31  3.2  0.00  0.01  0.00  0.00     1
 20 MAY   34 First Pod     1296   2.99   8.6   41  3.1  0.00  0.00  0.00  0.00     3
 27 MAY   41 First Seed    2314   3.62  10.7   69  3.0  0.00  0.00  0.00  0.00     5
 29 MAY   43 End Msnode    2612   3.61  11.3   77  2.9  0.00  0.00  0.00  0.00     5
  3 JUN   48 End Pod       3294   3.31  11.3   96  2.9  0.00  0.00  0.00  0.00     5
  6 JUN   51 End Leaf      3693   3.06  11.3  106  2.9  0.00  0.00  0.00  0.00     5
  8 JUN   53 Phys. Mat     3963   2.88  11.3  112  2.8  0.00  0.00  0.00  0.00     7
 17 JUN   62 Harv. Mat     3644   0.20  11.3  102  2.8  0.00  0.00  0.00  0.00     8
 17 JUN   62 Harvest       3644   0.20  11.3  102  2.8  0.00  0.00  0.00  0.00     8


*MAIN GROWTH AND DEVELOPMENT VARIABLES

@     VARIABLE                                         SIMULATED     MEASURED
      --------                                         ---------     --------
      Anthesis day (dap)                                      31          -99
      First pod day (dap)                                     34          -99
      First seed day (dap)                                    41          -99
      Physiological maturity day (dap)                        53          -99
      Yield at harvest maturity (kg [dm]/ha)                1955          -99
      Pod/Ear/Panicle weight at maturity (kg [dm]/ha)       2829          -99
      Number at maturity (no/m2)                             559          -99
      Unit wt at maturity (g [dm]/unit)                   0.3499          -99
      Number at maturity (no/unit)                          3.50          -99
      Tops weight at maturity (kg [dm]/ha)                  3644          -99
      By-product produced (stalk) at maturity (kg[dm]/ha    1690          -99
      Leaf area index, maximum                              3.63          -99
      Harvest index at maturity                            0.537          -99
      Threshing % at maturity                              69.12          -99
      Grain N at maturity (kg/ha)                             73          -99
      Tops N at maturity (kg/ha)                             102          -99
      Stem N at maturity (kg/ha)                               9          -99
      Grain N at maturity (%)                               3.73          -99
      Tops weight at anthesis (kg [dm]/ha)                   968          -99
      Tops N at anthesis (kg/ha)                              31          -99
      Leaf number per stem at maturity                     11.29          -99
      Grain oil at maturity (%)                             2.90          -99
      Canopy height (m)                                     0.97          -99
      Harvest maturity day (dap)                              62          -99
      Emergence day (dap)                                      5          -99


*ENVIRONMENTAL AND STRESS FACTORS

 |-----Development Phase------|--------------------------------------Environment--------------------------------------|-----------------Stress-----------------|
                              |---------------Average--------------|-----Cumulative-----|--------Count of days--------|          (0=Min, 1=Max Stress)         |
                         Time  Temp  Temp  Temp Solar Photop                Evapo    Pot TMIN TMIN TMAX TMAX TMAX RAIN|----Water----|---Nitrogen--|-Phosphorus-|
                         Span   Max   Min  Mean   Rad  [day]    CO2   Rain  Trans     ET   <    <    >    >    >    >   Photo         Photo         Photo
                         days    øC    øC    øC MJ/m2     hr    ppm     mm     mm     mm  0øC  2øC 30øC 32øC 34øC  0mm  synth Growth  synth Growth  synth Growth
----------------------------------------------------------------------------------------------------------------------------------------------------------------
 Emergence -First Flower   26  29.0  18.5  23.8  18.8  12.13  345.6   77.1    0.0    0.0    0    0    6    0    0   14  0.000  0.000  0.000  0.116  0.000  0.000
 First Flower-First Seed   10  29.9  19.3  24.6  18.5  12.18  345.7   10.4    0.0    0.0    0    0    5    0    0    4  0.000  0.000  0.000  0.000  0.000  0.000
 First Seed - Phys. Mat.   12  28.4  19.2  23.8  17.0  12.19  345.7   25.5    0.0    0.0    0    0    0    0    0    6  0.000  0.000  0.000  0.000  0.000  0.000
 Emergence  - Phys. Mat.   48  29.0  18.9  23.9  18.3  12.16  345.7  113.0    0.0    0.0    0    0   11    0    0   24  0.000  0.000  0.000  0.063  0.000  0.000


 Planting to Harvest       76  29.2  18.8  24.0  18.6  12.14  345.7  157.3    0.0    0.0    0    0   23    0    0   30  0.000  0.000  0.000  0.040  0.000  0.000
----------------------------------------------------------------------------------------------------------------------------------------------------------------

--------------------------------------------------------------------------------------------------------------

                  Dry bean YIELD :     1955 kg/ha    [Dry weight] 

**************************************************************************************************************

*DSSAT Cropping System Model Ver. 4.6.1.000 -release      JUL 11, 2017; 16:24:53
                                                                                
*RUN   7        : SIM                       CRGRO046 7\000007    1              
 MODEL          : CRGRO046 - Dry bean                                           
 EXPERIMENT     : 7\000007 BN PALMIRA_ANALISIS SENSIBILIDAD                     
 DATA PATH      : D:\B\0\00000                                                  
 TREATMENT  1   : SIM                       CRGRO046                            
                                                                                
                                                                                
 CROP           : Dry bean         CULTIVAR : Jatu Rong        ECOTYPE :ANDIND  
 STARTING DATE  : APR  2 1986                                                   
 PLANTING DATE  : APR 16 1986        PLANTS/m2 : 26.6     ROW SPACING :  60.cm  
 WEATHER        : PALM8034                                                      
 SOIL           : CCPA000030     TEXTURE : C     -   Silty Clay Loam            
 WATER BALANCE  : NOT SIMULATED ; NO H2O-STRESS                                 
 IRRIGATION     :                                                               
 NITROGEN BAL.  : NOT SIMULATED ; NO N-STRESS                                   
 N-FERTILIZER   :                                                               
 RESIDUE/MANURE :                                                               
 ENVIRONM. OPT. : DAYL=    0.00  SRAD=    0.00  TMAX=    0.00  TMIN=    0.00    
                  RAIN=    0.00  CO2 =    0.00  DEW =    0.00  WIND=    0.00    
 SIMULATION OPT : WATER   :N  NITROGEN:N  N-FIX:N  PHOSPH :N  PESTS  :N         
                  PHOTO   :L  ET      :R  INFIL:S  HYDROL :R  SOM    :G         
                  CO2 347ppm  NSWIT   :1  EVAP :S  SOIL   :2  STEMP  :D         
 MANAGEMENT OPT : PLANTING:A  IRRIG   :A  FERT :D  RESIDUE:N  HARVEST:M         
                  WEATHER :M  TILLAGE :N                                        
                                                                                
*SUMMARY OF SOIL AND GENETIC INPUT PARAMETERS                                   
                                                                                
 Dry bean   CULTIVAR :000007-Jatu Rong          ECOTYPE :ANDIND                 
 CSDVAR :12.17  PPSEN  : 0.05  EMG-FLW:24.00  FLW-FSD: 9.00  FSD-PHM : 11.00    
 WTPSD  :0.600  SDPDVR : 3.50  SDFDUR :15.00  PODDUR :10.00  XFRUIT  :  1.00    
 THRESH : 78.0  SDPRO  :0.235  SDLIP   : 0.030                                  


*SIMULATED CROP AND SOIL STATUS AT MAIN DEVELOPMENT STAGES

 RUN NO.     7     SIM                     

        CROP GROWTH     BIOMASS         LEAF   CROP N     STRESS      STRESS                                           
   DATE  AGE STAGE        kg/ha    LAI   NUM  kg/ha  %   H2O  Nitr Phos1 Phos2  RSTG                                   
 ------  --- ----------   -----  -----  ----  ---  ---  ----  ----  ----  ----  ----                                   
  2 APR    0 Start Sim        0   0.00   0.0    0  0.0  0.00  0.00  0.00  0.00     0
 16 APR    0 Sowing           0   0.00   0.0    0  0.0  0.00  0.00  0.00  0.00     0
 21 APR    5 Emergence       44   0.08   0.2    1  3.4  0.00  0.00  0.00  0.00     0
 21 APR    5 End Juven.      44   0.08   0.2    1  3.4  0.00  0.00  0.00  0.00     0
 24 APR    8 Unifoliate      48   0.09   1.1    2  3.3  0.00  0.66  0.00  0.00     0
 26 APR   10 Flower Ind      55   0.10   1.7    2  3.2  0.00  0.44  0.00  0.00     0
 16 MAY   30 First Flwr     927   2.31   7.7   29  3.2  0.00  0.01  0.00  0.00     1
 19 MAY   33 First Pod     1261   2.83   8.6   40  3.1  0.00  0.00  0.00  0.00     3
 26 MAY   40 First Seed    2281   3.49  10.7   68  3.0  0.00  0.00  0.00  0.00     5
 28 MAY   42 End Msnode    2590   3.50  11.3   76  2.9  0.00  0.00  0.00  0.00     5
  2 JUN   47 End Pod       3286   3.25  11.3   96  2.9  0.00  0.00  0.00  0.00     5
  5 JUN   50 End Leaf      3695   3.01  11.3  106  2.9  0.00  0.00  0.00  0.00     5
  8 JUN   53 Phys. Mat     4063   2.75  11.3  114  2.8  0.00  0.00  0.00  0.00     7
 17 JUN   62 Harv. Mat     3730   0.19  11.3  104  2.8  0.00  0.00  0.00  0.00     8
 17 JUN   62 Harvest       3730   0.19  11.3  104  2.8  0.00  0.00  0.00  0.00     8


*MAIN GROWTH AND DEVELOPMENT VARIABLES

@     VARIABLE                                         SIMULATED     MEASURED
      --------                                         ---------     --------
      Anthesis day (dap)                                      30          -99
      First pod day (dap)                                     33          -99
      First seed day (dap)                                    40          -99
      Physiological maturity day (dap)                        53          -99
      Yield at harvest maturity (kg [dm]/ha)                2025          -99
      Pod/Ear/Panicle weight at maturity (kg [dm]/ha)       2881          -99
      Number at maturity (no/m2)                             556          -99
      Unit wt at maturity (g [dm]/unit)                   0.3642          -99
      Number at maturity (no/unit)                          3.50          -99
      Tops weight at maturity (kg [dm]/ha)                  3730          -99
      By-product produced (stalk) at maturity (kg[dm]/ha    1700          -99
      Leaf area index, maximum                              3.51          -99
      Harvest index at maturity                            0.543          -99
      Threshing % at maturity                              70.29          -99
      Grain N at maturity (kg/ha)                             76          -99
      Tops N at maturity (kg/ha)                             104          -99
      Stem N at maturity (kg/ha)                               9          -99
      Grain N at maturity (%)                               3.74          -99
      Tops weight at anthesis (kg [dm]/ha)                   927          -99
      Tops N at anthesis (kg/ha)                              29          -99
      Leaf number per stem at maturity                     11.31          -99
      Grain oil at maturity (%)                             2.88          -99
      Canopy height (m)                                     0.97          -99
      Harvest maturity day (dap)                              62          -99
      Emergence day (dap)                                      5          -99


*ENVIRONMENTAL AND STRESS FACTORS

 |-----Development Phase------|--------------------------------------Environment--------------------------------------|-----------------Stress-----------------|
                              |---------------Average--------------|-----Cumulative-----|--------Count of days--------|          (0=Min, 1=Max Stress)         |
                         Time  Temp  Temp  Temp Solar Photop                Evapo    Pot TMIN TMIN TMAX TMAX TMAX RAIN|----Water----|---Nitrogen--|-Phosphorus-|
                         Span   Max   Min  Mean   Rad  [day]    CO2   Rain  Trans     ET   <    <    >    >    >    >   Photo         Photo         Photo
                         days    øC    øC    øC MJ/m2     hr    ppm     mm     mm     mm  0øC  2øC 30øC 32øC 34øC  0mm  synth Growth  synth Growth  synth Growth
----------------------------------------------------------------------------------------------------------------------------------------------------------------
 Emergence -First Flower   25  30.5  19.4  24.9  19.4  12.13  346.8   62.8    0.0    0.0    0    0   16    4    0   14  0.000  0.000  0.000  0.123  0.000  0.000
 First Flower-First Seed   10  31.3  19.2  25.3  19.9  12.17  346.9   44.9    0.0    0.0    0    0   10    1    0    6  0.000  0.000  0.000  0.000  0.000  0.000
 First Seed - Phys. Mat.   13  28.7  18.8  23.7  17.5  12.19  346.9  105.7    0.0    0.0    0    0    4    0    0    7  0.000  0.000  0.000  0.000  0.000  0.000
 Emergence  - Phys. Mat.   48  30.2  19.2  24.7  19.0  12.16  346.9  213.4    0.0    0.0    0    0   30    5    0   27  0.000  0.000  0.000  0.064  0.000  0.000


 Planting to Harvest       76  29.6  19.2  24.4  18.6  12.14  346.9  310.1    0.0    0.0    0    0   36    5    0   40  0.000  0.000  0.000  0.040  0.000  0.000
----------------------------------------------------------------------------------------------------------------------------------------------------------------

--------------------------------------------------------------------------------------------------------------

                  Dry bean YIELD :     2025 kg/ha    [Dry weight] 

**************************************************************************************************************

*DSSAT Cropping System Model Ver. 4.6.1.000 -release      JUL 11, 2017; 16:24:53
                                                                                
*RUN   8        : SIM                       CRGRO046 7\000007    1              
 MODEL          : CRGRO046 - Dry bean                                           
 EXPERIMENT     : 7\000007 BN PALMIRA_ANALISIS SENSIBILIDAD                     
 DATA PATH      : D:\B\0\00000                                                  
 TREATMENT  1   : SIM                       CRGRO046                            
                                                                                
                                                                                
 CROP           : Dry bean         CULTIVAR : Jatu Rong        ECOTYPE :ANDIND  
 STARTING DATE  : APR  2 1987                                                   
 PLANTING DATE  : APR 16 1987        PLANTS/m2 : 26.6     ROW SPACING :  60.cm  
 WEATHER        : PALM8034                                                      
 SOIL           : CCPA000030     TEXTURE : C     -   Silty Clay Loam            
 WATER BALANCE  : NOT SIMULATED ; NO H2O-STRESS                                 
 IRRIGATION     :                                                               
 NITROGEN BAL.  : NOT SIMULATED ; NO N-STRESS                                   
 N-FERTILIZER   :                                                               
 RESIDUE/MANURE :                                                               
 ENVIRONM. OPT. : DAYL=    0.00  SRAD=    0.00  TMAX=    0.00  TMIN=    0.00    
                  RAIN=    0.00  CO2 =    0.00  DEW =    0.00  WIND=    0.00    
 SIMULATION OPT : WATER   :N  NITROGEN:N  N-FIX:N  PHOSPH :N  PESTS  :N         
                  PHOTO   :L  ET      :R  INFIL:S  HYDROL :R  SOM    :G         
                  CO2 348ppm  NSWIT   :1  EVAP :S  SOIL   :2  STEMP  :D         
 MANAGEMENT OPT : PLANTING:A  IRRIG   :A  FERT :D  RESIDUE:N  HARVEST:M         
                  WEATHER :M  TILLAGE :N                                        
                                                                                
*SUMMARY OF SOIL AND GENETIC INPUT PARAMETERS                                   
                                                                                
 Dry bean   CULTIVAR :000007-Jatu Rong          ECOTYPE :ANDIND                 
 CSDVAR :12.17  PPSEN  : 0.05  EMG-FLW:24.00  FLW-FSD: 9.00  FSD-PHM : 11.00    
 WTPSD  :0.600  SDPDVR : 3.50  SDFDUR :15.00  PODDUR :10.00  XFRUIT  :  1.00    
 THRESH : 78.0  SDPRO  :0.235  SDLIP   : 0.030                                  


*SIMULATED CROP AND SOIL STATUS AT MAIN DEVELOPMENT STAGES

 RUN NO.     8     SIM                     

        CROP GROWTH     BIOMASS         LEAF   CROP N     STRESS      STRESS                                           
   DATE  AGE STAGE        kg/ha    LAI   NUM  kg/ha  %   H2O  Nitr Phos1 Phos2  RSTG                                   
 ------  --- ----------   -----  -----  ----  ---  ---  ----  ----  ----  ----  ----                                   
  2 APR    0 Start Sim        0   0.00   0.0    0  0.0  0.00  0.00  0.00  0.00     0
 16 APR    0 Sowing           0   0.00   0.0    0  0.0  0.00  0.00  0.00  0.00     0
 21 APR    5 Emergence       44   0.08   0.2    1  3.4  0.00  0.00  0.00  0.00     0
 21 APR    5 End Juven.      44   0.08   0.2    1  3.4  0.00  0.00  0.00  0.00     0
 24 APR    8 Unifoliate      49   0.09   1.1    2  3.3  0.00  0.65  0.00  0.00     0
 26 APR   10 Flower Ind      56   0.10   1.7    2  3.2  0.00  0.43  0.00  0.00     0
 17 MAY   31 First Flwr    1059   2.53   8.0   34  3.2  0.00  0.01  0.00  0.00     1
 19 MAY   33 First Pod     1301   2.92   8.6   41  3.1  0.00  0.00  0.00  0.00     3
 26 MAY   40 First Seed    2347   3.66  10.7   70  3.0  0.00  0.00  0.00  0.00     5
 28 MAY   42 End Msnode    2664   3.70  11.3   78  2.9  0.00  0.00  0.00  0.00     5
  2 JUN   47 End Pod       3403   3.46  11.3   98  2.9  0.00  0.00  0.00  0.00     5
  5 JUN   50 End Leaf      3781   3.18  11.3  106  2.8  0.00  0.00  0.00  0.00     5
  7 JUN   52 Phys. Mat     4058   2.98  11.3  113  2.8  0.00  0.00  0.00  0.00     7
 16 JUN   61 Harv. Mat     3652   0.20  11.3   99  2.7  0.00  0.00  0.00  0.00     8
 16 JUN   61 Harvest       3652   0.20  11.3   99  2.7  0.00  0.00  0.00  0.00     8


*MAIN GROWTH AND DEVELOPMENT VARIABLES

@     VARIABLE                                         SIMULATED     MEASURED
      --------                                         ---------     --------
      Anthesis day (dap)                                      31          -99
      First pod day (dap)                                     33          -99
      First seed day (dap)                                    40          -99
      Physiological maturity day (dap)                        52          -99
      Yield at harvest maturity (kg [dm]/ha)                1828          -99
      Pod/Ear/Panicle weight at maturity (kg [dm]/ha)       2668          -99
      Number at maturity (no/m2)                             542          -99
      Unit wt at maturity (g [dm]/unit)                   0.3369          -99
      Number at maturity (no/unit)                          3.50          -99
      Tops weight at maturity (kg [dm]/ha)                  3652          -99
      By-product produced (stalk) at maturity (kg[dm]/ha    1820          -99
      Leaf area index, maximum                              3.70          -99
      Harvest index at maturity                            0.500          -99
      Threshing % at maturity                              68.52          -99
      Grain N at maturity (kg/ha)                             69          -99
      Tops N at maturity (kg/ha)                              99          -99
      Stem N at maturity (kg/ha)                              11          -99
      Grain N at maturity (%)                               3.79          -99
      Tops weight at anthesis (kg [dm]/ha)                  1059          -99
      Tops N at anthesis (kg/ha)                              34          -99
      Leaf number per stem at maturity                     11.33          -99
      Grain oil at maturity (%)                             2.90          -99
      Canopy height (m)                                     0.97          -99
      Harvest maturity day (dap)                              61          -99
      Emergence day (dap)                                      5          -99


*ENVIRONMENTAL AND STRESS FACTORS

 |-----Development Phase------|--------------------------------------Environment--------------------------------------|-----------------Stress-----------------|
                              |---------------Average--------------|-----Cumulative-----|--------Count of days--------|          (0=Min, 1=Max Stress)         |
                         Time  Temp  Temp  Temp Solar Photop                Evapo    Pot TMIN TMIN TMAX TMAX TMAX RAIN|----Water----|---Nitrogen--|-Phosphorus-|
                         Span   Max   Min  Mean   Rad  [day]    CO2   Rain  Trans     ET   <    <    >    >    >    >   Photo         Photo         Photo
                         days    øC    øC    øC MJ/m2     hr    ppm     mm     mm     mm  0øC  2øC 30øC 32øC 34øC  0mm  synth Growth  synth Growth  synth Growth
----------------------------------------------------------------------------------------------------------------------------------------------------------------
 Emergence -First Flower   26  31.1  18.9  25.0  20.4  12.13  348.5  148.6    0.0    0.0    0    0   20    7    1   17  0.000  0.000  0.000  0.113  0.000  0.000
 First Flower-First Seed    9  31.7  19.5  25.6  19.9  12.17  348.6   66.5    0.0    0.0    0    0    9    3    0    5  0.000  0.000  0.000  0.000  0.000  0.000
 First Seed - Phys. Mat.   12  30.2  19.6  24.9  18.2  12.19  348.6   16.8    0.0    0.0    0    0    5    3    0    1  0.000  0.000  0.000  0.000  0.000  0.000
 Emergence  - Phys. Mat.   47  31.0  19.2  25.1  19.7  12.16  348.6  231.9    0.0    0.0    0    0   34   13    1   23  0.000  0.000  0.000  0.063  0.000  0.000


 Planting to Harvest       75  31.1  19.4  25.2  19.8  12.14  348.5  239.2    0.0    0.0    0    0   56   20    1   29  0.000  0.000  0.000  0.039  0.000  0.000
----------------------------------------------------------------------------------------------------------------------------------------------------------------

--------------------------------------------------------------------------------------------------------------

                  Dry bean YIELD :     1828 kg/ha    [Dry weight] 

**************************************************************************************************************

*DSSAT Cropping System Model Ver. 4.6.1.000 -release      JUL 11, 2017; 16:24:53
                                                                                
*RUN   9        : SIM                       CRGRO046 7\000007    1              
 MODEL          : CRGRO046 - Dry bean                                           
 EXPERIMENT     : 7\000007 BN PALMIRA_ANALISIS SENSIBILIDAD                     
 DATA PATH      : D:\B\0\00000                                                  
 TREATMENT  1   : SIM                       CRGRO046                            
                                                                                
                                                                                
 CROP           : Dry bean         CULTIVAR : Jatu Rong        ECOTYPE :ANDIND  
 STARTING DATE  : APR  1 1988                                                   
 PLANTING DATE  : APR 15 1988        PLANTS/m2 : 26.6     ROW SPACING :  60.cm  
 WEATHER        : PALM8034                                                      
 SOIL           : CCPA000030     TEXTURE : C     -   Silty Clay Loam            
 WATER BALANCE  : NOT SIMULATED ; NO H2O-STRESS                                 
 IRRIGATION     :                                                               
 NITROGEN BAL.  : NOT SIMULATED ; NO N-STRESS                                   
 N-FERTILIZER   :                                                               
 RESIDUE/MANURE :                                                               
 ENVIRONM. OPT. : DAYL=    0.00  SRAD=    0.00  TMAX=    0.00  TMIN=    0.00    
                  RAIN=    0.00  CO2 =    0.00  DEW =    0.00  WIND=    0.00    
 SIMULATION OPT : WATER   :N  NITROGEN:N  N-FIX:N  PHOSPH :N  PESTS  :N         
                  PHOTO   :L  ET      :R  INFIL:S  HYDROL :R  SOM    :G         
                  CO2 351ppm  NSWIT   :1  EVAP :S  SOIL   :2  STEMP  :D         
 MANAGEMENT OPT : PLANTING:A  IRRIG   :A  FERT :D  RESIDUE:N  HARVEST:M         
                  WEATHER :M  TILLAGE :N                                        
                                                                                
*SUMMARY OF SOIL AND GENETIC INPUT PARAMETERS                                   
                                                                                
 Dry bean   CULTIVAR :000007-Jatu Rong          ECOTYPE :ANDIND                 
 CSDVAR :12.17  PPSEN  : 0.05  EMG-FLW:24.00  FLW-FSD: 9.00  FSD-PHM : 11.00    
 WTPSD  :0.600  SDPDVR : 3.50  SDFDUR :15.00  PODDUR :10.00  XFRUIT  :  1.00    
 THRESH : 78.0  SDPRO  :0.235  SDLIP   : 0.030                                  


*SIMULATED CROP AND SOIL STATUS AT MAIN DEVELOPMENT STAGES

 RUN NO.     9     SIM                     

        CROP GROWTH     BIOMASS         LEAF   CROP N     STRESS      STRESS                                           
   DATE  AGE STAGE        kg/ha    LAI   NUM  kg/ha  %   H2O  Nitr Phos1 Phos2  RSTG                                   
 ------  --- ----------   -----  -----  ----  ---  ---  ----  ----  ----  ----  ----                                   
  1 APR    0 Start Sim        0   0.00   0.0    0  0.0  0.00  0.00  0.00  0.00     0
 15 APR    0 Sowing           0   0.00   0.0    0  0.0  0.00  0.00  0.00  0.00     0
 20 APR    5 Emergence       44   0.08   0.2    1  3.4  0.00  0.00  0.00  0.00     0
 20 APR    5 End Juven.      44   0.08   0.2    1  3.4  0.00  0.00  0.00  0.00     0
 23 APR    8 Unifoliate      48   0.09   1.0    2  3.3  0.00  0.65  0.00  0.00     0
 25 APR   10 Flower Ind      56   0.10   1.6    2  3.2  0.00  0.41  0.00  0.00     0
 16 MAY   31 First Flwr     964   2.43   7.9   31  3.2  0.00  0.01  0.00  0.00     1
 18 MAY   33 First Pod     1184   2.79   8.5   37  3.1  0.00  0.00  0.00  0.00     3
 25 MAY   40 First Seed    2166   3.48  10.5   65  3.0  0.00  0.00  0.00  0.00     5
 28 MAY   43 End Msnode    2586   3.48  11.4   76  2.9  0.00  0.00  0.00  0.00     5
  1 JUN   47 End Pod       3164   3.29  11.4   91  2.9  0.00  0.00  0.00  0.00     5
  4 JUN   50 End Leaf      3572   3.04  11.4  101  2.8  0.00  0.00  0.00  0.00     5
  7 JUN   53 Phys. Mat     3968   2.76  11.4  110  2.8  0.00  0.00  0.00  0.00     7
 16 JUN   62 Harv. Mat     3640   0.19  11.4  100  2.7  0.00  0.00  0.00  0.00     8
 16 JUN   62 Harvest       3640   0.19  11.4  100  2.7  0.00  0.00  0.00  0.00     8


*MAIN GROWTH AND DEVELOPMENT VARIABLES

@     VARIABLE                                         SIMULATED     MEASURED
      --------                                         ---------     --------
      Anthesis day (dap)                                      31          -99
      First pod day (dap)                                     33          -99
      First seed day (dap)                                    40          -99
      Physiological maturity day (dap)                        53          -99
      Yield at harvest maturity (kg [dm]/ha)                1793          -99
      Pod/Ear/Panicle weight at maturity (kg [dm]/ha)       2727          -99
      Number at maturity (no/m2)                             597          -99
      Unit wt at maturity (g [dm]/unit)                   0.3004          -99
      Number at maturity (no/unit)                          3.50          -99
      Tops weight at maturity (kg [dm]/ha)                  3640          -99
      By-product produced (stalk) at maturity (kg[dm]/ha    1850          -99
      Leaf area index, maximum                              3.50          -99
      Harvest index at maturity                            0.493          -99
      Threshing % at maturity                              65.78          -99
      Grain N at maturity (kg/ha)                             69          -99
      Tops N at maturity (kg/ha)                             100          -99
      Stem N at maturity (kg/ha)                              10          -99
      Grain N at maturity (%)                               3.84          -99
      Tops weight at anthesis (kg [dm]/ha)                   964          -99
      Tops N at anthesis (kg/ha)                              31          -99
      Leaf number per stem at maturity                     11.38          -99
      Grain oil at maturity (%)                             2.82          -99
      Canopy height (m)                                     0.99          -99
      Harvest maturity day (dap)                              62          -99
      Emergence day (dap)                                      5          -99


*ENVIRONMENTAL AND STRESS FACTORS

 |-----Development Phase------|--------------------------------------Environment--------------------------------------|-----------------Stress-----------------|
                              |---------------Average--------------|-----Cumulative-----|--------Count of days--------|          (0=Min, 1=Max Stress)         |
                         Time  Temp  Temp  Temp Solar Photop                Evapo    Pot TMIN TMIN TMAX TMAX TMAX RAIN|----Water----|---Nitrogen--|-Phosphorus-|
                         Span   Max   Min  Mean   Rad  [day]    CO2   Rain  Trans     ET   <    <    >    >    >    >   Photo         Photo         Photo
                         days    øC    øC    øC MJ/m2     hr    ppm     mm     mm     mm  0øC  2øC 30øC 32øC 34øC  0mm  synth Growth  synth Growth  synth Growth
----------------------------------------------------------------------------------------------------------------------------------------------------------------
 Emergence -First Flower   26  29.2  19.3  24.3  18.3  12.13  351.0   83.5    0.0    0.0    0    0    7    0    0   10  0.000  0.000  0.000  0.118  0.000  0.000
 First Flower-First Seed    9  29.6  19.1  24.4  18.4  12.17  351.2    2.3    0.0    0.0    0    0    3    0    0    3  0.000  0.000  0.000  0.000  0.000  0.000
 First Seed - Phys. Mat.   13  30.4  18.8  24.6  19.0  12.19  351.2  116.8    0.0    0.0    0    0    7    5    1    7  0.000  0.000  0.000  0.000  0.000  0.000
 Emergence  - Phys. Mat.   48  29.6  19.1  24.4  18.5  12.16  351.1  202.6    0.0    0.0    0    0   17    5    1   20  0.000  0.000  0.000  0.064  0.000  0.000


 Planting to Harvest       76  29.6  19.2  24.4  18.5  12.14  351.1  366.9    0.0    0.0    0    0   31    8    1   35  0.000  0.000  0.000  0.040  0.000  0.000
----------------------------------------------------------------------------------------------------------------------------------------------------------------

--------------------------------------------------------------------------------------------------------------

                  Dry bean YIELD :     1793 kg/ha    [Dry weight] 

**************************************************************************************************************

*DSSAT Cropping System Model Ver. 4.6.1.000 -release      JUL 11, 2017; 16:24:53
                                                                                
*RUN  10        : SIM                       CRGRO046 7\000007    1              
 MODEL          : CRGRO046 - Dry bean                                           
 EXPERIMENT     : 7\000007 BN PALMIRA_ANALISIS SENSIBILIDAD                     
 DATA PATH      : D:\B\0\00000                                                  
 TREATMENT  1   : SIM                       CRGRO046                            
[...]
      Emergence day (dap)                                      5          -99


*ENVIRONMENTAL AND STRESS FACTORS

 |-----Development Phase------|--------------------------------------Environment--------------------------------------|-----------------Stress-----------------|
                              |---------------Average--------------|-----Cumulative-----|--------Count of days--------|          (0=Min, 1=Max Stress)         |
                         Time  Temp  Temp  Temp Solar Photop                Evapo    Pot TMIN TMIN TMAX TMAX TMAX RAIN|----Water----|---Nitrogen--|-Phosphorus-|
                         Span   Max   Min  Mean   Rad  [day]    CO2   Rain  Trans     ET   <    <    >    >    >    >   Photo         Photo         Photo
                         days    øC    øC    øC MJ/m2     hr    ppm     mm     mm     mm  0øC  2øC 30øC 32øC 34øC  0mm  synth Growth  synth Growth  synth Growth
----------------------------------------------------------------------------------------------------------------------------------------------------------------
 Emergence -First Flower   26  30.4  19.0  24.7  19.6  12.13  386.9   52.7    0.0    0.0    0    0   19    2    0   15  0.000  0.000  0.000  0.108  0.000  0.000
 First Flower-First Seed    9  30.8  18.8  24.8  19.8  12.17  387.1    0.0    0.0    0.0    0    0    8    0    0    0  0.000  0.000  0.000  0.000  0.000  0.000
 First Seed - Phys. Mat.   13  30.6  19.2  24.9  18.9  12.19  387.1   38.9    0.0    0.0    0    0    7    3    0    5  0.000  0.000  0.000  0.000  0.000  0.000
 Emergence  - Phys. Mat.   48  30.5  19.0  24.8  19.5  12.16  387.0   91.6    0.0    0.0    0    0   34    5    0   20  0.000  0.000  0.000  0.059  0.000  0.000


 Planting to Harvest       76  30.2  19.2  24.7  19.1  12.14  387.0  106.2    0.0    0.0    0    0   46    5    0   33  0.000  0.000  0.000  0.037  0.000  0.000
----------------------------------------------------------------------------------------------------------------------------------------------------------------

--------------------------------------------------------------------------------------------------------------

                  Dry bean YIELD :     1959 kg/ha    [Dry weight] 

**************************************************************************************************************

*DSSAT Cropping System Model Ver. 4.6.1.000 -release      JUL 11, 2017; 16:24:53
                                                                                
*RUN  31        : SIM                       CRGRO046 7\000007    1              
 MODEL          : CRGRO046 - Dry bean                                           
 EXPERIMENT     : 7\000007 BN PALMIRA_ANALISIS SENSIBILIDAD                     
 DATA PATH      : D:\B\0\00000                                                  
 TREATMENT  1   : SIM                       CRGRO046                            
                                                                                
                                                                                
 CROP           : Dry bean         CULTIVAR : Jatu Rong        ECOTYPE :ANDIND  
 STARTING DATE  : APR  2 2010                                                   
 PLANTING DATE  : APR 16 2010        PLANTS/m2 : 26.6     ROW SPACING :  60.cm  
 WEATHER        : PALM8034                                                      
 SOIL           : CCPA000030     TEXTURE : C     -   Silty Clay Loam            
 WATER BALANCE  : NOT SIMULATED ; NO H2O-STRESS                                 
 IRRIGATION     :                                                               
 NITROGEN BAL.  : NOT SIMULATED ; NO N-STRESS                                   
 N-FERTILIZER   :                                                               
 RESIDUE/MANURE :                                                               
 ENVIRONM. OPT. : DAYL=    0.00  SRAD=    0.00  TMAX=    0.00  TMIN=    0.00    
                  RAIN=    0.00  CO2 =    0.00  DEW =    0.00  WIND=    0.00    
 SIMULATION OPT : WATER   :N  NITROGEN:N  N-FIX:N  PHOSPH :N  PESTS  :N         
                  PHOTO   :L  ET      :R  INFIL:S  HYDROL :R  SOM    :G         
                  CO2 389ppm  NSWIT   :1  EVAP :S  SOIL   :2  STEMP  :D         
 MANAGEMENT OPT : PLANTING:A  IRRIG   :A  FERT :D  RESIDUE:N  HARVEST:M         
                  WEATHER :M  TILLAGE :N                                        
                                                                                
*SUMMARY OF SOIL AND GENETIC INPUT PARAMETERS                                   
                                                                                
 Dry bean   CULTIVAR :000007-Jatu Rong          ECOTYPE :ANDIND                 
 CSDVAR :12.17  PPSEN  : 0.05  EMG-FLW:24.00  FLW-FSD: 9.00  FSD-PHM : 11.00    
 WTPSD  :0.600  SDPDVR : 3.50  SDFDUR :15.00  PODDUR :10.00  XFRUIT  :  1.00    
 THRESH : 78.0  SDPRO  :0.235  SDLIP   : 0.030                                  


*SIMULATED CROP AND SOIL STATUS AT MAIN DEVELOPMENT STAGES

 RUN NO.    31     SIM                     

        CROP GROWTH     BIOMASS         LEAF   CROP N     STRESS      STRESS                                           
   DATE  AGE STAGE        kg/ha    LAI   NUM  kg/ha  %   H2O  Nitr Phos1 Phos2  RSTG                                   
 ------  --- ----------   -----  -----  ----  ---  ---  ----  ----  ----  ----  ----                                   
  2 APR    0 Start Sim        0   0.00   0.0    0  0.0  0.00  0.00  0.00  0.00     0
 16 APR    0 Sowing           0   0.00   0.0    0  0.0  0.00  0.00  0.00  0.00     0
 21 APR    5 Emergence       44   0.08   0.2    1  3.4  0.00  0.00  0.00  0.00     0
 21 APR    5 End Juven.      44   0.08   0.2    1  3.4  0.00  0.00  0.00  0.00     0
 24 APR    8 Unifoliate      49   0.09   1.1    2  3.3  0.00  0.66  0.00  0.00     0
 26 APR   10 Flower Ind      55   0.10   1.7    2  3.1  0.00  0.45  0.00  0.00     0
 16 MAY   30 First Flwr     981   2.51   7.8   31  3.2  0.00  0.01  0.00  0.00     1
 19 MAY   33 First Pod     1346   3.11   8.8   42  3.1  0.00  0.00  0.00  0.00     3
 25 MAY   39 First Seed    2202   3.72  10.6   66  3.0  0.00  0.00  0.00  0.00     5
 28 MAY   42 End Msnode    2641   3.72  11.4   78  2.9  0.00  0.00  0.00  0.00     5
  1 JUN   46 End Pod       3247   3.50  11.4   94  2.9  0.00  0.00  0.00  0.00     5
  4 JUN   49 End Leaf      3637   3.25  11.4  104  2.9  0.00  0.00  0.00  0.00     5
  7 JUN   52 Phys. Mat     4076   2.95  11.4  114  2.8  0.00  0.00  0.00  0.00     7
 16 JUN   61 Harv. Mat     3758   0.20  11.4  104  2.8  0.00  0.00  0.00  0.00     8
 16 JUN   61 Harvest       3758   0.20  11.4  104  2.8  0.00  0.00  0.00  0.00     8


*MAIN GROWTH AND DEVELOPMENT VARIABLES

@     VARIABLE                                         SIMULATED     MEASURED
      --------                                         ---------     --------
      Anthesis day (dap)                                      30          -99
      First pod day (dap)                                     33          -99
      First seed day (dap)                                    39          -99
      Physiological maturity day (dap)                        52          -99
      Yield at harvest maturity (kg [dm]/ha)                1949          -99
      Pod/Ear/Panicle weight at maturity (kg [dm]/ha)       2886          -99
      Number at maturity (no/m2)                             594          -99
      Unit wt at maturity (g [dm]/unit)                   0.3278          -99
      Number at maturity (no/unit)                          3.50          -99
      Tops weight at maturity (kg [dm]/ha)                  3758          -99
      By-product produced (stalk) at maturity (kg[dm]/ha    1810          -99
      Leaf area index, maximum                              3.73          -99
      Harvest index at maturity                            0.518          -99
      Threshing % at maturity                              67.51          -99
      Grain N at maturity (kg/ha)                             73          -99
      Tops N at maturity (kg/ha)                             104          -99
      Stem N at maturity (kg/ha)                              10          -99
      Grain N at maturity (%)                               3.77          -99
      Tops weight at anthesis (kg [dm]/ha)                   981          -99
      Tops N at anthesis (kg/ha)                              31          -99
      Leaf number per stem at maturity                     11.42          -99
      Grain oil at maturity (%)                             2.90          -99
      Canopy height (m)                                     1.04          -99
      Harvest maturity day (dap)                              61          -99
      Emergence day (dap)                                      5          -99


*ENVIRONMENTAL AND STRESS FACTORS

 |-----Development Phase------|--------------------------------------Environment--------------------------------------|-----------------Stress-----------------|
                              |---------------Average--------------|-----Cumulative-----|--------Count of days--------|          (0=Min, 1=Max Stress)         |
                         Time  Temp  Temp  Temp Solar Photop                Evapo    Pot TMIN TMIN TMAX TMAX TMAX RAIN|----Water----|---Nitrogen--|-Phosphorus-|
                         Span   Max   Min  Mean   Rad  [day]    CO2   Rain  Trans     ET   <    <    >    >    >    >   Photo         Photo         Photo
                         days    øC    øC    øC MJ/m2     hr    ppm     mm     mm     mm  0øC  2øC 30øC 32øC 34øC  0mm  synth Growth  synth Growth  synth Growth
----------------------------------------------------------------------------------------------------------------------------------------------------------------
 Emergence -First Flower   25  29.8  20.3  25.1  17.9  12.13  389.4  124.3    0.0    0.0    0    0   14    1    0   11  0.000  0.000  0.000  0.119  0.000  0.000
 First Flower-First Seed    9  29.5  20.5  25.0  16.9  12.17  389.6   41.2    0.0    0.0    0    0    6    0    0    5  0.000  0.000  0.000  0.000  0.000  0.000
 First Seed - Phys. Mat.   13  28.5  19.4  24.0  16.8  12.19  389.6   49.4    0.0    0.0    0    0    5    0    0    6  0.000  0.000  0.000  0.000  0.000  0.000
 Emergence  - Phys. Mat.   47  29.4  20.1  24.8  17.4  12.16  389.5  214.9    0.0    0.0    0    0   25    1    0   22  0.000  0.000  0.000  0.063  0.000  0.000


 Planting to Harvest       75  29.4  19.9  24.6  17.8  12.14  389.5  371.5    0.0    0.0    0    0   37    3    0   40  0.000  0.000  0.000  0.040  0.000  0.000
----------------------------------------------------------------------------------------------------------------------------------------------------------------

--------------------------------------------------------------------------------------------------------------

                  Dry bean YIELD :     1949 kg/ha    [Dry weight] 

**************************************************************************************************************

*DSSAT Cropping System Model Ver. 4.6.1.000 -release      JUL 11, 2017; 16:24:53
                                                                                
*RUN  32        : SIM                       CRGRO046 7\000007    1              
 MODEL          : CRGRO046 - Dry bean                                           
 EXPERIMENT     : 7\000007 BN PALMIRA_ANALISIS SENSIBILIDAD                     
 DATA PATH      : D:\B\0\00000                                                  
 TREATMENT  1   : SIM                       CRGRO046                            
                                                                                
                                                                                
 CROP           : Dry bean         CULTIVAR : Jatu Rong        ECOTYPE :ANDIND  
 STARTING DATE  : APR  2 2011                                                   
 PLANTING DATE  : APR 16 2011        PLANTS/m2 : 26.6     ROW SPACING :  60.cm  
 WEATHER        : PALM8034                                                      
 SOIL           : CCPA000030     TEXTURE : C     -   Silty Clay Loam            
 WATER BALANCE  : NOT SIMULATED ; NO H2O-STRESS                                 
 IRRIGATION     :                                                               
 NITROGEN BAL.  : NOT SIMULATED ; NO N-STRESS                                   
 N-FERTILIZER   :                                                               
 RESIDUE/MANURE :                                                               
 ENVIRONM. OPT. : DAYL=    0.00  SRAD=    0.00  TMAX=    0.00  TMIN=    0.00    
                  RAIN=    0.00  CO2 =    0.00  DEW =    0.00  WIND=    0.00    
 SIMULATION OPT : WATER   :N  NITROGEN:N  N-FIX:N  PHOSPH :N  PESTS  :N         
                  PHOTO   :L  ET      :R  INFIL:S  HYDROL :R  SOM    :G         
                  CO2 391ppm  NSWIT   :1  EVAP :S  SOIL   :2  STEMP  :D         
 MANAGEMENT OPT : PLANTING:A  IRRIG   :A  FERT :D  RESIDUE:N  HARVEST:M         
                  WEATHER :M  TILLAGE :N                                        
                                                                                
*SUMMARY OF SOIL AND GENETIC INPUT PARAMETERS                                   
                                                                                
 Dry bean   CULTIVAR :000007-Jatu Rong          ECOTYPE :ANDIND                 
 CSDVAR :12.17  PPSEN  : 0.05  EMG-FLW:24.00  FLW-FSD: 9.00  FSD-PHM : 11.00    
 WTPSD  :0.600  SDPDVR : 3.50  SDFDUR :15.00  PODDUR :10.00  XFRUIT  :  1.00    
 THRESH : 78.0  SDPRO  :0.235  SDLIP   : 0.030                                  


*SIMULATED CROP AND SOIL STATUS AT MAIN DEVELOPMENT STAGES

 RUN NO.    32     SIM                     

        CROP GROWTH     BIOMASS         LEAF   CROP N     STRESS      STRESS                                           
   DATE  AGE STAGE        kg/ha    LAI   NUM  kg/ha  %   H2O  Nitr Phos1 Phos2  RSTG                                   
 ------  --- ----------   -----  -----  ----  ---  ---  ----  ----  ----  ----  ----                                   
  2 APR    0 Start Sim        0   0.00   0.0    0  0.0  0.00  0.00  0.00  0.00     0
 16 APR    0 Sowing           0   0.00   0.0    0  0.0  0.00  0.00  0.00  0.00     0
 21 APR    5 Emergence       44   0.08   0.2    1  3.4  0.00  0.00  0.00  0.00     0
 21 APR    5 End Juven.      44   0.08   0.2    1  3.4  0.00  0.00  0.00  0.00     0
 24 APR    8 Unifoliate      49   0.09   1.1    2  3.3  0.00  0.64  0.00  0.00     0
 26 APR   10 Flower Ind      57   0.10   1.7    2  3.1  0.00  0.39  0.00  0.00     0
 16 MAY   30 First Flwr     981   2.51   7.7   31  3.2  0.00  0.01  0.00  0.00     1
 19 MAY   33 First Pod     1341   3.08   8.6   42  3.1  0.00  0.00  0.00  0.00     3
 26 MAY   40 First Seed    2443   3.77  10.7   73  3.0  0.00  0.00  0.00  0.00     5
 28 MAY   42 End Msnode    2777   3.79  11.3   82  3.0  0.00  0.00  0.00  0.00     5
  2 JUN   47 End Pod       3526   3.51  11.3  103  2.9  0.00  0.00  0.00  0.00     5
  5 JUN   50 End Leaf      3946   3.24  11.3  113  2.9  0.00  0.00  0.00  0.00     5
  7 JUN   52 Phys. Mat     4239   3.03  11.3  119  2.8  0.00  0.00  0.00  0.00     7
 16 JUN   61 Harv. Mat     3915   0.21  11.3  109  2.8  0.00  0.00  0.00  0.00     8
 16 JUN   61 Harvest       3915   0.21  11.3  109  2.8  0.00  0.00  0.00  0.00     8


*MAIN GROWTH AND DEVELOPMENT VARIABLES

@     VARIABLE                                         SIMULATED     MEASURED
      --------                                         ---------     --------
      Anthesis day (dap)                                      30          -99
      First pod day (dap)                                     33          -99
      First seed day (dap)                                    40          -99
      Physiological maturity day (dap)                        52          -99
      Yield at harvest maturity (kg [dm]/ha)                2032          -99
      Pod/Ear/Panicle weight at maturity (kg [dm]/ha)       2974          -99
      Number at maturity (no/m2)                             603          -99
      Unit wt at maturity (g [dm]/unit)                   0.3369          -99
      Number at maturity (no/unit)                          3.50          -99
      Tops weight at maturity (kg [dm]/ha)                  3915          -99
      By-product produced (stalk) at maturity (kg[dm]/ha    1880          -99
      Leaf area index, maximum                              3.79          -99
      Harvest index at maturity                            0.519          -99
      Threshing % at maturity                              68.34          -99
      Grain N at maturity (kg/ha)                             78          -99
      Tops N at maturity (kg/ha)                             109          -99
      Stem N at maturity (kg/ha)                              10          -99
      Grain N at maturity (%)                               3.85          -99
      Tops weight at anthesis (kg [dm]/ha)                   981          -99
      Tops N at anthesis (kg/ha)                              31          -99
      Leaf number per stem at maturity                     11.25          -99
      Grain oil at maturity (%)                             2.79          -99
      Canopy height (m)                                     0.97          -99
      Harvest maturity day (dap)                              61          -99
      Emergence day (dap)                                      5          -99


*ENVIRONMENTAL AND STRESS FACTORS

 |-----Development Phase------|--------------------------------------Environment--------------------------------------|-----------------Stress-----------------|
                              |---------------Average--------------|-----Cumulative-----|--------Count of days--------|          (0=Min, 1=Max Stress)         |
                         Time  Temp  Temp  Temp Solar Photop                Evapo    Pot TMIN TMIN TMAX TMAX TMAX RAIN|----Water----|---Nitrogen--|-Phosphorus-|
                         Span   Max   Min  Mean   Rad  [day]    CO2   Rain  Trans     ET   <    <    >    >    >    >   Photo         Photo         Photo
                         days    øC    øC    øC MJ/m2     hr    ppm     mm     mm     mm  0øC  2øC 30øC 32øC 34øC  0mm  synth Growth  synth Growth  synth Growth
----------------------------------------------------------------------------------------------------------------------------------------------------------------
 Emergence -First Flower   25  29.9  19.6  24.7  18.8  12.13  391.2   84.2    0.0    0.0    0    0   12    1    0   14  0.000  0.000  0.000  0.114  0.000  0.000
 First Flower-First Seed   10  30.3  18.8  24.6  19.4  12.17  391.4    2.4    0.0    0.0    0    0    7    0    0    4  0.000  0.000  0.000  0.000  0.000  0.000
 First Seed - Phys. Mat.   12  29.4  19.6  24.5  17.5  12.19  391.4   23.3    0.0    0.0    0    0    6    0    0    5  0.000  0.000  0.000  0.000  0.000  0.000
 Emergence  - Phys. Mat.   47  29.9  19.4  24.6  18.6  12.16  391.3  109.9    0.0    0.0    0    0   25    1    0   23  0.000  0.000  0.000  0.061  0.000  0.000


 Planting to Harvest       75  29.7  19.4  24.6  18.6  12.14  391.3  271.4    0.0    0.0    0    0   37    4    0   42  0.000  0.000  0.000  0.038  0.000  0.000
----------------------------------------------------------------------------------------------------------------------------------------------------------------

--------------------------------------------------------------------------------------------------------------

                  Dry bean YIELD :     2032 kg/ha    [Dry weight] 

**************************************************************************************************************
