*GROWTH ASPECTS OUTPUT FILE

*DSSAT Cropping System Model Ver. 4.6.1.000 -release      JUL 11, 2017; 16:24:53
                                                                                
*RUN   1        : SIM                       CRGRO046 7\000007    1              
 MODEL          : CRGRO046 - Dry bean                                           
 EXPERIMENT     : 7\000007 BN PALMIRA_ANALISIS SENSIBILIDAD                     
 DATA PATH      : D:\B\0\00000                                                  
 TREATMENT  1   : SIM                       CRGRO046                            
  
!                                                                                                                                                                                                                                                    Root Dens. (cm/cm3) by soil depth (cm):
!                                                                                                                                                                                                                                                    0-5    5-15   15-25   25-35   35-50   50-65   65-80   80-99  99-122 122-209
@YEAR DOY   DAS   DAP   L#SD   GSTD   LAID   LWAD   SWAD   GWAD   RWAD   VWAD   CWAD   G#AD    GWGD   HIAD   PWAD   P#AD   WSPD   WSGD   NSTD  PST1A  PST2A   KSTD   EWSD    LN%D   SH%D   HIPD   PWDD   PWTD   SLAD   CHTD   CWID   NWAD   RDPD    RL1D    RL2D    RL3D    RL4D    RL5D    RL6D    RL7D    RL8D    RL9D   RL10D    SNW0C   SNW1C
 1980 106    15     0    0.0      0  0.000      0      0      0      0      0      0      0     0.0  0.000      0      0  0.000  0.000  0.000  0.000  0.000  0.000  0.000    0.00   0.00   0.00      0      0    0.0   0.00   0.00    0.0   0.00    0.00    0.00    0.00    0.00    0.00    0.00    0.00    0.00    0.00    0.00        0       0
 1980 107    16     1    0.0      0  0.000      0      0      0      0      0      0      0     0.0  0.000      0      0  0.000  0.000  0.000  0.000  0.000  0.000  0.000    0.00   0.00   0.00      0      0    0.0   0.00   0.00    0.0   0.00    0.00    0.00    0.00    0.00    0.00    0.00    0.00    0.00    0.00    0.00        0       0
 1980 108    17     2    0.0      0  0.000      0      0      0      0      0      0      0     0.0  0.000      0      0  0.000  0.000  0.000  0.000  0.000  0.000  0.000    0.00   0.00   0.00      0      0    0.0   0.00   0.00    0.0   0.00    0.00    0.00    0.00    0.00    0.00    0.00    0.00    0.00    0.00    0.00        0       0
 1980 109    18     3    0.0      0  0.000      0      0      0      0      0      0      0     0.0  0.000      0      0  0.000  0.000  0.000  0.000  0.000  0.000  0.000    0.00   0.00   0.00      0      0    0.0   0.00   0.00    0.0   0.00    0.00    0.00    0.00    0.00    0.00    0.00    0.00    0.00    0.00    0.00        0       0
 1980 110    19     4    0.0      0  0.000      0      0      0      0      0      0      0     0.0  0.000      0      0  0.000  0.000  0.000  0.000  0.000  0.000  0.000    0.00   0.00   0.00      0      0    0.0   0.00   0.00    0.0   0.00    0.00    0.00    0.00    0.00    0.00    0.00    0.00    0.00    0.00    0.00        0       0
 1980 111    20     5    0.2      0  0.079     31     13      0     43     44     44      0     0.0  0.000      0      0  0.000  0.000  0.000  0.000  0.000  0.000  0.000    3.84   0.00   0.00      0      0  256.8   0.04   0.03    0.0   0.27    0.15    0.15    0.15    0.00    0.00    0.00    0.00    0.00    0.00    0.00        0       1
 1980 112    21     6    0.5      0  0.082     31     14      0     50     45     45      0     0.0  0.000      0      0  0.000  0.000  0.646  0.000  0.000  0.000  0.000    3.78   0.00   0.00      0      0  261.8   0.05   0.03    0.0   0.29    0.18    0.18    0.17    0.01    0.00    0.00    0.00    0.00    0.00    0.00        0       2
 1980 113    22     7    0.8      0  0.085     32     15      0     59     47     47      0     0.0  0.000      0      0  0.000  0.000  0.737  0.000  0.000  0.000  0.000    3.72   0.00   0.00      0      0  265.6   0.07   0.04    0.0   0.32    0.21    0.21    0.20    0.02    0.00    0.00    0.00    0.00    0.00    0.00        0       3
 1980 114    23     8    1.1      0  0.088     33     16      0     67     49     49      0     0.0  0.000      0      0  0.000  0.000  0.546  0.000  0.000  0.000  0.000    3.71   0.00   0.00      0      0  271.5   0.08   0.05    0.0   0.34    0.24    0.24    0.21    0.03    0.00    0.00    0.00    0.00    0.00    0.00        0       4
 1980 115    24     9    1.4      0  0.092     33     18      0     74     51     51      0     0.0  0.000      0      0  0.000  0.000  0.519  0.000  0.000  0.000  0.000    3.68   0.00   0.00      0      0  278.2   0.09   0.05    0.0   0.36    0.26    0.26    0.23    0.05    0.00    0.00    0.00    0.00    0.00    0.00        1       6
 1980 116    25    10    1.7      0  0.098     34     22      0     79     56     56      0     0.0  0.000      0      0  0.000  0.000  0.303  0.000  0.000  0.000  0.000    3.66   0.00   0.00      0      0  285.5   0.10   0.06    0.0   0.38    0.28    0.28    0.24    0.06    0.00    0.00    0.00    0.00    0.00    0.00        1       7
 1980 117    26    11    2.0      0  0.114     37     25      0     82     62     62      0     0.0  0.000      0      0  0.000  0.000  0.204  0.000  0.000  0.000  0.000    3.63   0.00   0.00      0      0  308.2   0.11   0.07    0.0   0.40    0.28    0.28    0.25    0.06    0.00    0.00    0.00    0.00    0.00    0.00        2       9
 1980 118    27    12    2.3      0  0.141     44     28      0     82     72     72      0     0.0  0.000      0      0  0.000  0.000  0.000  0.000  0.000  0.000  0.000    3.61   0.00   0.00      0      0  323.5   0.11   0.08    0.0   0.42    0.29    0.29    0.25    0.06    0.00    0.00    0.00    0.00    0.00    0.00        2      11
 1980 119    28    13    2.6      0  0.168     49     34      0     84     83     83      0     0.0  0.000      0      0  0.000  0.000  0.000  0.000  0.000  0.000  0.000    3.56   0.00   0.00      0      0  339.2   0.12   0.08    0.0   0.44    0.29    0.29    0.25    0.07    0.01    0.00    0.00    0.00    0.00    0.00        3      12
 1980 120    29    14    2.9      0  0.206     57     39      0     85     96     96      0     0.0  0.000      0      0  0.000  0.000  0.000  0.000  0.000  0.000  0.000    3.53   0.00   0.00      0      0  358.4   0.13   0.09    0.0   0.46    0.29    0.29    0.25    0.07    0.01    0.00    0.00    0.00    0.00    0.00        3      14
 1980 121    30    15    3.2      0  0.258     70     42      0     85    113    113      0     0.0  0.000      0      0  0.000  0.000  0.000  0.000  0.000  0.000  0.000    3.53   0.00   0.00      0      0  367.5   0.14   0.10    0.0   0.49    0.29    0.29    0.25    0.07    0.01    0.00    0.00    0.00    0.00    0.00        4      16
 1980 122    31    16    3.5      0  0.313     81     49      0     86    131    131      0     0.0  0.000      0      0  0.000  0.000  0.000  0.000  0.000  0.000  0.000    3.52   0.00   0.00      0      0  385.3   0.15   0.12    0.0   0.51    0.29    0.29    0.25    0.07    0.01    0.00    0.00    0.00    0.00    0.00        5      18
 1980 123    32    17    3.8      0  0.365     93     59      0     88    152    152      0     0.0  0.000      0      0  0.000  0.000  0.000  0.000  0.000  0.000  0.000    3.52   0.00   0.00      0      0  390.6   0.16   0.14    0.0   0.53    0.30    0.30    0.25    0.08    0.02    0.00    0.00    0.00    0.00    0.00        5      19
 1980 124    33    18    4.1      0  0.417    105     72      0     90    177    177      0     0.0  0.000      0      0  0.000  0.000  0.000  0.000  0.000  0.000  0.000    3.51   0.00   0.00      0      0  395.5   0.17   0.16    0.0   0.54    0.30    0.30    0.26    0.08    0.02    0.00    0.00    0.00    0.00    0.00        6      21
 1980 125    34    19    4.4      0  0.493    122     83      0     92    206    206      0     0.0  0.000      0      0  0.000  0.000  0.000  0.000  0.000  0.000  0.000    3.52   0.00   0.00      0      0  402.4   0.19   0.18    0.0   0.56    0.31    0.31    0.26    0.09    0.02    0.00    0.00    0.00    0.00    0.00        8      23
 1980 126    35    20    4.7      0  0.604    148     92      0     93    240    240      0     0.0  0.000      0      0  0.000  0.000  0.000  0.000  0.000  0.000  0.000    3.54   0.00   0.00      0      0  407.6   0.20   0.20    0.0   0.58    0.31    0.31    0.26    0.09    0.03    0.00    0.00    0.00    0.00    0.00        9      25
 1980 127    36    21    5.0      0  0.739    178    102      0     94    280    280      0     0.0  0.000      0      0  0.000  0.000  0.000  0.000  0.000  0.000  0.000    3.55   0.00   0.00      0      0  416.4   0.22   0.22    0.0   0.60    0.31    0.31    0.26    0.09    0.03    0.00    0.00    0.00    0.00    0.00       11      27
 1980 128    37    22    5.3      0  0.869    207    120      0     98    327    327      0     0.0  0.000      0      0  0.000  0.000  0.000  0.000  0.000  0.000  0.000    3.56   0.00   0.00      0      0  419.2   0.24   0.25    0.0   0.62    0.32    0.32    0.27    0.10    0.03    0.01    0.00    0.00    0.00    0.00       13      29
 1980 129    38    23    5.6      0  1.018    241    140      0    102    381    381      0     0.0  0.000      0      0  0.000  0.000  0.000  0.000  0.000  0.000  0.000    3.56   0.00   0.00      0      0  422.5   0.26   0.27    0.0   0.64    0.33    0.33    0.27    0.10    0.04    0.01    0.00    0.00    0.00    0.00       15      31
 1980 130    39    24    5.9      0  1.177    279    164      0    107    442    442      0     0.0  0.000      0      0  0.000  0.000  0.000  0.000  0.000  0.000  0.000    3.57   0.00   0.00      0      0  422.3   0.28   0.29    0.0   0.65    0.34    0.34    0.28    0.11    0.04    0.01    0.00    0.00    0.00    0.00       18      33
 1980 131    40    25    6.2      0  1.369    321    191      0    113    512    512      0     0.0  0.000      0      0  0.000  0.000  0.000  0.000  0.000  0.000  0.000    3.57   0.00   0.00      0      0  426.2   0.31   0.31    0.0   0.67    0.35    0.35    0.29    0.12    0.05    0.02    0.00    0.00    0.00    0.00       21      36
 1980 132    41    26    6.5      0  1.561    366    222      0    120    588    588      0     0.0  0.000      0      0  0.000  0.000  0.000  0.000  0.000  0.000  0.000    3.59   0.00   0.00      0      0  426.5   0.34   0.33    0.0   0.69    0.37    0.37    0.30    0.13    0.06    0.02    0.00    0.00    0.00    0.00       29      38
 1980 133    42    27    6.8      0  1.746    407    255      0    128    662    662      0     0.0  0.000      0      0  0.000  0.000  0.000  0.000  0.000  0.000  0.000    3.65   0.00   0.00      0      0  428.9   0.37   0.36    0.0   0.71    0.39    0.39    0.31    0.14    0.06    0.03    0.00    0.00    0.00    0.00       47      41
 1980 134    43    28    7.1      0  1.953    441    287      0    135    728    728      0     0.0  0.000      0      0  0.000  0.000  0.000  0.000  0.000  0.000  0.000    3.70   0.00   0.00      0      0  443.1   0.40   0.38    0.0   0.72    0.40    0.40    0.33    0.15    0.07    0.03    0.00    0.00    0.00    0.00       67      44
 1980 135    44    29    7.4      0  2.154    480    327      0    144    807    807      0     0.0  0.000      0      0  0.000  0.000  0.000  0.000  0.000  0.000  0.000    3.75   0.00   0.00      0      0  448.8   0.43   0.40    0.0   0.74    0.42    0.42    0.34    0.16    0.08    0.04    0.01    0.00    0.00    0.00       90      46
 1980 136    45    30    7.7      1  2.344    517    370      0    153    888    888      0     0.0  0.000      0      0  0.000  0.000  0.000  0.000  0.000  0.000  0.000    3.81   0.00   0.00      0      0  453.0   0.46   0.42    0.0   0.76    0.45    0.45    0.36    0.17    0.09    0.04    0.01    0.00    0.00    0.00      117      49
 1980 137    46    31    7.9      1  2.495    558    421      0    164    979    979      0     0.0  0.000      0      0  0.000  0.000  0.000  0.000  0.000  0.000  0.000    3.87   0.00   0.00      0      0  447.2   0.49   0.44    0.0   0.77    0.47    0.47    0.37    0.18    0.10    0.05    0.01    0.00    0.00    0.00      149      53
 1980 138    47    32    8.2      1  2.675    608    480      0    175   1088   1088      0     0.0  0.000      0      0  0.000  0.000  0.000  0.000  0.000  0.000  0.000    3.88   0.00   0.00      0      0  439.8   0.52   0.46    0.0   0.79    0.50    0.50    0.39    0.20    0.11    0.05    0.02    0.00    0.00    0.00      170      56
 1980 139    48    33    8.5      3  2.858    662    545      0    186   1207   1207      0     0.0  0.000      0      0  0.000  0.000  0.000  0.000  0.000  0.000  0.000    3.88   0.00   0.00      0      0  431.6   0.55   0.48    0.0   0.81    0.52    0.52    0.41    0.21    0.12    0.06    0.02    0.00    0.00    0.00      190      60
 1980 140    49    34    8.8      3  3.022    715    613      0    198   1328   1332      0     0.0  0.000      4      5  0.000  0.000  0.000  0.000  0.000  0.000  0.000    3.88   0.00   0.00      0      4  422.9   0.58   0.50    0.0   0.82    0.55    0.55    0.43    0.22    0.13    0.06    0.03    0.00    0.00    0.00      211      64
 1980 141    50    35    9.1      3  3.148    765    683      0    209   1449   1467      0     0.0  0.000     18     17  0.000  0.000  0.000  0.000  0.000  0.000  0.000    3.88   0.00   0.01      0     18  411.2   0.61   0.52    0.0   0.84    0.57    0.57    0.45    0.24    0.14    0.07    0.03    0.00    0.00    0.00      231      68
 1980 142    51    36    9.5      3  3.258    806    747      0    218   1554   1596      0     0.0  0.000     42     29  0.000  0.000  0.000  0.000  0.000  0.000  0.000    3.87   0.00   0.03      0     42  404.1   0.64   0.54    0.0   0.86    0.59    0.59    0.46    0.25    0.15    0.08    0.04    0.00    0.00    0.00      253      73
 1980 143    52    37    9.8      3  3.351    847    813      0    227   1660   1737      0     0.0  0.000     77     42  0.000  0.000  0.000  0.000  0.000  0.000  0.000    3.85   0.00   0.04      0     77  395.4   0.68   0.55    0.0   0.87    0.61    0.61    0.48    0.26    0.16    0.08    0.04    0.00    0.00    0.00      270      77
 1980 144    53    38   10.1      3  3.417    883    876      0    234   1760   1882      0     0.0  0.000    123     55  0.000  0.000  0.000  0.000  0.000  0.000  0.000    3.84   0.00   0.07      0    123  386.8   0.72   0.57    0.0   0.89    0.63    0.63    0.49    0.27    0.16    0.08    0.05    0.00    0.00    0.00      288      82
 1980 145    54    39   10.4      3  3.462    914    934      0    241   1848   2029      0     0.0  0.000    180     69  0.000  0.000  0.000  0.000  0.000  0.000  0.000    3.82   0.00   0.09      0    180  378.8   0.75   0.58    0.0   0.91    0.64    0.64    0.50    0.28    0.17    0.09    0.05    0.01    0.00    0.00      305      87
 1980 146    55    40   10.7      5  3.494    944    993      0    246   1937   2183     16     0.0  0.000    246     83  0.000  0.000  0.000  0.000  0.000  0.000  0.000    3.79   0.00   0.11      0    246  370.2   0.79   0.59    0.0   0.92    0.65    0.65    0.51    0.28    0.17    0.09    0.05    0.01    0.00    0.00      320      93
 1980 147    56    41   11.0      5  3.501    962   1037      6    250   1999   2329     56    11.3  0.003    329     97  0.000  0.000  0.000  0.000  0.000  0.000  0.000    3.77   1.91   0.14      0    329  363.9   0.83   0.60    0.0   0.94    0.66    0.66    0.51    0.29    0.18    0.09    0.05    0.01    0.00    0.00      338      98
 1980 148    57    42   11.3      5  3.489    971   1068     28    250   2039   2474     96    29.0  0.011    435    111  0.000  0.000  0.000  0.000  0.000  0.000  0.000    3.75   6.40   0.18      0    435  359.4   0.86   0.60    0.0   0.96    0.66    0.66    0.51    0.29    0.18    0.09    0.05    0.01    0.00    0.00      354     103
 1980 149    58    43   11.3      5  3.462    973   1090     65    249   2063   2619    139    46.5  0.025    556    124  0.000  0.000  0.000  0.000  0.000  0.000  0.000    3.73  11.62   0.21      0    556  355.8   0.90   0.60    0.0   0.97    0.65    0.65    0.51    0.29    0.18    0.09    0.05    0.01    0.00    0.00      372     109
 1980 150    59    44   11.3      5  3.421    968   1102    118    247   2070   2764    183    64.3  0.043    694    138  0.000  0.000  0.000  0.000  0.000  0.000  0.000    3.71  16.98   0.25      0    694  353.5   0.93   0.60    0.0   0.99    0.65    0.65    0.50    0.28    0.18    0.09    0.05    0.01    0.00    0.00      391     114
 1980 151    60    45   11.3      5  3.353    946   1089    190    241   2036   2890    229    82.8  0.066    854    151  0.000  0.000  0.000  0.000  0.000  0.000  0.000    3.66  22.24   0.30      0    854  354.3   0.97   0.60    0.0   1.01    0.63    0.63    0.49    0.28    0.17    0.09    0.05    0.01    0.00    0.00      410     119
 1980 152    61    46   11.3      5  3.282    925   1077    278    236   2001   3028    277   100.4  0.092   1027    165  0.000  0.000  0.000  0.000  0.000  0.000  0.000    3.61  27.07   0.34      0   1027  355.0   0.97   0.60    0.0   1.02    0.62    0.62    0.48    0.27    0.17    0.09    0.05    0.01    0.00    0.00      431     124
 1980 153    62    47   11.3      5  3.210    901   1062    387    231   1964   3156    277   139.9  0.123   1193    179  0.000  0.000  0.000  0.000  0.000  0.000  0.000    3.55  32.48   0.38      0   1193  356.1   0.97   0.60    0.0   1.02    0.61    0.61    0.47    0.27    0.17    0.09    0.05    0.01    0.00    0.00      447     129
 1980 154    63    48   11.3      5  3.145    881   1049    494    227   1930   3274    324   152.3  0.151   1344    192  0.000  0.000  0.000  0.000  0.000  0.000  0.000    3.50  36.74   0.41      0   1344  357.1   0.97   0.60    0.0   1.02    0.60    0.60    0.46    0.26    0.16    0.09    0.05    0.01    0.00    0.00      466     133
 1980 155    64    49   11.3      5  3.066    856   1034    618    221   1890   3411    374   165.3  0.181   1521    201  0.000  0.000  0.000  0.000  0.000  0.000  0.000    3.43  40.61   0.45      0   1521  358.3   0.97   0.60    0.0   1.02    0.59    0.59    0.45    0.26    0.16    0.08    0.05    0.01    0.00    0.00      488     138
 1980 156    65    50   11.3      5  2.978    829   1018    762    216   1846   3545    422   180.4  0.215   1699    208  0.000  0.000  0.000  0.000  0.000  0.000  0.000    3.34  44.84   0.48      0   1699  359.5   0.97   0.60    0.0   1.02    0.57    0.57    0.44    0.25    0.16    0.08    0.05    0.01    0.00    0.00      512     142
 1980 157    66    51   11.3      5  2.888    801   1001    923    211   1802   3680    470   196.4  0.251   1878    213  0.000  0.000  0.000  0.000  0.000  0.000  0.000    3.25  49.14   0.51      0   1878  360.7   0.97   0.60    0.0   1.04    0.56    0.56    0.44    0.25    0.15    0.08    0.05    0.01    0.00    0.00      536     147
 1980 158    67    52   11.3      5  2.791    771    984   1105    206   1755   3807    516   214.3  0.290   2051    215  0.000  0.000  0.000  0.000  0.000  0.000  0.000    3.15  53.85   0.54      0   2051  362.1   0.97   0.60    0.0   1.04    0.55    0.55    0.43    0.24    0.15    0.08    0.05    0.01    0.00    0.00      565     151
 1980 159    68    53   11.3      7  2.701    744    972   1293    201   1716   3926    541   239.1  0.329   2210    209  0.000  0.000  0.000  0.000  0.000  0.000  0.000    3.04  58.53   0.56      0   2210  362.8   0.97   0.60    0.0   1.04    0.54    0.54    0.42    0.24    0.15    0.08    0.05    0.01    0.00    0.00      605     156
 1980 160    69    54   11.3      7  1.994    548    908   1474    196   1456   3831    545   270.5  0.385   2375    196  0.000  0.000  0.000  0.000  0.000  0.000  0.000    2.84  62.06   0.62      0   2375  363.8   0.97   0.60    0.0   1.04    0.53    0.53    0.41    0.23    0.14    0.08    0.04    0.01    0.00    0.00      853     160
 1980 161    70    55   11.3      7  1.475    404    859   1619    192   1263   3775    545   297.2  0.429   2511    182  0.000  0.000  0.000  0.000  0.000  0.000  0.000    2.67  64.48   0.67      0   2511  365.1   0.97   0.60    0.0   1.04    0.51    0.51    0.40    0.23    0.14    0.07    0.04    0.01    0.00    0.00     1031     165
 1980 162    71    56   11.3      7  1.094    299    823   1731    188   1121   3736    545   317.6  0.463   2615    164  0.000  0.000  0.000  0.000  0.000  0.000  0.000    2.52  66.18   0.70      0   2615  366.4   0.97   0.60    0.0   1.04    0.50    0.50    0.39    0.22    0.14    0.07    0.04    0.01    0.00    0.00     1162     169
 1980 163    72    57   11.3      7  0.811    221    794   1818    183   1015   3710    545   333.7  0.490   2695    159  0.000  0.000  0.000  0.000  0.000  0.000  0.000    2.38  67.47   0.73      0   2695  367.7   0.97   0.60    0.0   1.04    0.49    0.49    0.38    0.22    0.14    0.07    0.04    0.01    0.00    0.00     1259     173
 1980 164    73    58   11.3      7  0.603    163    772   1882    179    936   3688    545   345.5  0.510   2752    156  0.000  0.000  0.000  0.000  0.000  0.000  0.000    2.26  68.39   0.75      0   2752  368.9   0.97   0.60    0.0   1.04    0.48    0.48    0.37    0.21    0.13    0.07    0.04    0.01    0.00    0.00     1331     176
 1980 165    74    59   11.3      7  0.448    121    755   1929    176    876   3669    545   354.0  0.526   2793    156  0.000  0.000  0.000  0.000  0.000  0.000  0.000    2.15  69.07   0.76      0   2793  370.2   0.97   0.60    0.0   1.04    0.47    0.47    0.37    0.21    0.13    0.07    0.04    0.01    0.00    0.00     1384     180
 1980 166    75    60   11.3      7  0.334     90    741   1964    172    831   3653    545   360.5  0.538   2822    156  0.000  0.000  0.000  0.000  0.000  0.000  0.000    2.05  69.61   0.77      0   2822  371.4   0.97   0.60    0.0   1.04    0.46    0.46    0.36    0.20    0.13    0.07    0.04    0.01    0.00    0.00     1424     183
 1980 167    76    61   11.3      7  0.249     67    731   1988    168    798   3638    545   364.8  0.546   2841    156  0.000  0.000  0.000  0.000  0.000  0.000  0.000    1.97  69.97   0.78      0   2841  372.4   0.97   0.60    0.0   1.04    0.45    0.45    0.35    0.20    0.12    0.07    0.04    0.01    0.00    0.00     1453     187
 1980 168    77    62   11.3      8  0.186     50    723   2000    165    773   3623    545   367.2  0.552   2850    156  0.000  0.000  0.000  0.000  0.000  0.000  0.000    1.93  70.18   0.79      0   2850  373.5   0.97   0.60    0.0   1.05    0.44    0.44    0.34    0.19    0.12    0.06    0.04    0.01    0.00    0.00     1475     190

*DSSAT Cropping System Model Ver. 4.6.1.000 -release      JUL 11, 2017; 16:24:53
                                                                                
*RUN   2        : SIM                       CRGRO046 7\000007    1              
 MODEL          : CRGRO046 - Dry bean                                           
 EXPERIMENT     : 7\000007 BN PALMIRA_ANALISIS SENSIBILIDAD                     
 DATA PATH      : D:\B\0\00000                                                  
 TREATMENT  1   : SIM                       CRGRO046                            
  
!                                                                                                                                                                                                                                                    Root Dens. (cm/cm3) by soil depth (cm):
!                                                                                                                                                                                                                                                    0-5    5-15   15-25   25-35   35-50   50-65   65-80   80-99  99-122 122-209
@YEAR DOY   DAS   DAP   L#SD   GSTD   LAID   LWAD   SWAD   GWAD   RWAD   VWAD   CWAD   G#AD    GWGD   HIAD   PWAD   P#AD   WSPD   WSGD   NSTD  PST1A  PST2A   KSTD   EWSD    LN%D   SH%D   HIPD   PWDD   PWTD   SLAD   CHTD   CWID   NWAD   RDPD    RL1D    RL2D    RL3D    RL4D    RL5D    RL6D    RL7D    RL8D    RL9D   RL10D    SNW0C   SNW1C
 1981 106    15     0    0.0      0  0.000      0      0      0      0      0      0      0     0.0  0.000      0      0  0.000  0.000  0.000  0.000  0.000  0.000  0.000    0.00   0.00   0.00      0      0    0.0   0.00   0.00    0.0   0.00    0.00    0.00    0.00    0.00    0.00    0.00    0.00    0.00    0.00    0.00        0       0
 1981 107    16     1    0.0      0  0.000      0      0      0      0      0      0      0     0.0  0.000      0      0  0.000  0.000  0.000  0.000  0.000  0.000  0.000    0.00   0.00   0.00      0      0    0.0   0.00   0.00    0.0   0.00    0.00    0.00    0.00    0.00    0.00    0.00    0.00    0.00    0.00    0.00        0       0
 1981 108    17     2    0.0      0  0.000      0      0      0      0      0      0      0     0.0  0.000      0      0  0.000  0.000  0.000  0.000  0.000  0.000  0.000    0.00   0.00   0.00      0      0    0.0   0.00   0.00    0.0   0.00    0.00    0.00    0.00    0.00    0.00    0.00    0.00    0.00    0.00    0.00        0       0
 1981 109    18     3    0.0      0  0.000      0      0      0      0      0      0      0     0.0  0.000      0      0  0.000  0.000  0.000  0.000  0.000  0.000  0.000    0.00   0.00   0.00      0      0    0.0   0.00   0.00    0.0   0.00    0.00    0.00    0.00    0.00    0.00    0.00    0.00    0.00    0.00    0.00        0       0
 1981 110    19     4    0.0      0  0.000      0      0      0      0      0      0      0     0.0  0.000      0      0  0.000  0.000  0.000  0.000  0.000  0.000  0.000    0.00   0.00   0.00      0      0    0.0   0.00   0.00    0.0   0.00    0.00    0.00    0.00    0.00    0.00    0.00    0.00    0.00    0.00    0.00        0       0
 1981 111    20     5    0.2      0  0.079     31     13      0     43     44     44      0     0.0  0.000      0      0  0.000  0.000  0.000  0.000  0.000  0.000  0.000    3.84   0.00   0.00      0      0  256.6   0.04   0.03    0.0   0.27    0.15    0.15    0.15    0.00    0.00    0.00    0.00    0.00    0.00    0.00        0       1
 1981 112    21     6    0.5      0  0.082     31     14      0     51     45     45      0     0.0  0.000      0      0  0.000  0.000  0.653  0.000  0.000  0.000  0.000    3.78   0.00   0.00      0      0  261.6   0.05   0.03    0.0   0.29    0.18    0.18    0.18    0.01    0.00    0.00    0.00    0.00    0.00    0.00        0       2
 1981 113    22     7    0.8      0  0.084     32     15      0     59     46     46      0     0.0  0.000      0      0  0.000  0.000  0.742  0.000  0.000  0.000  0.000    3.73   0.00   0.00      0      0  265.1   0.06   0.04    0.0   0.31    0.21    0.21    0.20    0.02    0.00    0.00    0.00    0.00    0.00    0.00        0       3
 1981 114    23     8    1.1      0  0.087     32     16      0     67     48     48      0     0.0  0.000      0      0  0.000  0.000  0.576  0.000  0.000  0.000  0.000    3.71   0.00   0.00      0      0  270.8   0.07   0.04    0.0   0.33    0.24    0.24    0.22    0.03    0.00    0.00    0.00    0.00    0.00    0.00        0       4
 1981 115    24     9    1.3      0  0.091     33     18      0     74     51     51      0     0.0  0.000      0      0  0.000  0.000  0.498  0.000  0.000  0.000  0.000    3.68   0.00   0.00      0      0  276.8   0.08   0.05    0.0   0.36    0.26    0.26    0.23    0.04    0.00    0.00    0.00    0.00    0.00    0.00        1       6
 1981 116    25    10    1.7      0  0.096     34     21      0     80     54     54      0     0.0  0.000      0      0  0.000  0.000  0.437  0.000  0.000  0.000  0.000    3.66   0.00   0.00      0      0  285.0   0.09   0.06    0.0   0.38    0.28    0.28    0.25    0.06    0.00    0.00    0.00    0.00    0.00    0.00        1       7
 1981 117    26    11    1.9      0  0.107     35     23      0     84     59     59      0     0.0  0.000      0      0  0.000  0.000  0.290  0.000  0.000  0.000  0.000    3.64   0.00   0.00      0      0  303.6   0.10   0.07    0.0   0.40    0.29    0.29    0.25    0.06    0.00    0.00    0.00    0.00    0.00    0.00        2       9
 1981 118    27    12    2.2      0  0.129     41     26      0     84     67     67      0     0.0  0.000      0      0  0.000  0.000  0.000  0.000  0.000  0.000  0.000    3.64   0.00   0.00      0      0  314.7   0.11   0.07    0.0   0.42    0.29    0.29    0.25    0.06    0.00    0.00    0.00    0.00    0.00    0.00        2      10
 1981 119    28    13    2.5      0  0.157     47     31      0     85     78     78      0     0.0  0.000      0      0  0.000  0.000  0.000  0.000  0.000  0.000  0.000    3.58   0.00   0.00      0      0  332.8   0.12   0.08    0.0   0.44    0.30    0.30    0.25    0.07    0.01    0.00    0.00    0.00    0.00    0.00        2      12
 1981 120    29    14    2.8      0  0.183     53     37      0     87     90     90      0     0.0  0.000      0      0  0.000  0.000  0.000  0.000  0.000  0.000  0.000    3.55   0.00   0.00      0      0  347.2   0.12   0.09    0.0   0.46    0.30    0.30    0.26    0.07    0.01    0.00    0.00    0.00    0.00    0.00        3      14
 1981 121    30    15    3.1      0  0.236     64     40      0     87    104    104      0     0.0  0.000      0      0  0.000  0.000  0.000  0.000  0.000  0.000  0.000    3.54   0.00   0.00      0      0  367.4   0.13   0.10    0.0   0.48    0.30    0.30    0.26    0.07    0.01    0.00    0.00    0.00    0.00    0.00        4      16
 1981 122    31    16    3.4      0  0.290     76     46      0     87    122    122      0     0.0  0.000      0      0  0.000  0.000  0.000  0.000  0.000  0.000  0.000    3.53   0.00   0.00      0      0  379.3   0.14   0.11    0.0   0.50    0.30    0.30    0.26    0.07    0.01    0.00    0.00    0.00    0.00    0.00        4      17
 1981 123    32    17    3.7      0  0.343     88     54      0     89    142    142      0     0.0  0.000      0      0  0.000  0.000  0.000  0.000  0.000  0.000  0.000    3.52   0.00   0.00      0      0  388.7   0.15   0.13    0.0   0.52    0.30    0.30    0.26    0.08    0.02    0.00    0.00    0.00    0.00    0.00        5      19
 1981 124    33    18    3.9      0  0.394     99     66      0     91    165    165      0     0.0  0.000      0      0  0.000  0.000  0.000  0.000  0.000  0.000  0.000    3.51   0.00   0.00      0      0  397.7   0.17   0.15    0.0   0.54    0.31    0.31    0.26    0.08    0.02    0.00    0.00    0.00    0.00    0.00        6      21
 1981 125    34    19    4.2      0  0.445    110     80      0     94    190    190      0     0.0  0.000      0      0  0.000  0.000  0.000  0.000  0.000  0.000  0.000    3.51   0.00   0.00      0      0  403.5   0.18   0.17    0.0   0.56    0.31    0.31    0.26    0.09    0.02    0.00    0.00    0.00    0.00    0.00        7      23
 1981 126    35    20    4.5      0  0.548    131     87      0     94    218    218      0     0.0  0.000      0      0  0.000  0.000  0.000  0.000  0.000  0.000  0.000    3.53   0.00   0.00      0      0  417.2   0.19   0.19    0.0   0.57    0.31    0.31    0.26    0.09    0.03    0.00    0.00    0.00    0.00    0.00        8      25
 1981 127    36    21    4.8      0  0.670    159     96      0     95    254    254      0     0.0  0.000      0      0  0.000  0.000  0.000  0.000  0.000  0.000  0.000    3.55   0.00   0.00      0      0  421.8   0.21   0.21    0.0   0.59    0.32    0.32    0.26    0.09    0.03    0.00    0.00    0.00    0.00    0.00       10      27
 1981 128    37    22    5.0      0  0.767    181    108      0     98    289    289      0     0.0  0.000      0      0  0.000  0.000  0.000  0.000  0.000  0.000  0.000    3.55   0.00   0.00      0      0  423.7   0.22   0.23    0.0   0.61    0.32    0.32    0.27    0.09    0.03    0.00    0.00    0.00    0.00    0.00       11      28
 1981 129    38    23    5.3      0  0.893    210    126      0    101    336    336      0     0.0  0.000      0      0  0.000  0.000  0.000  0.000  0.000  0.000  0.000    3.56   0.00   0.00      0      0  424.4   0.24   0.24    0.0   0.62    0.33    0.33    0.27    0.10    0.04    0.01    0.00    0.00    0.00    0.00       13      30
 1981 130    39    24    5.6      0  1.045    244    146      0    105    389    389      0     0.0  0.000      0      0  0.000  0.000  0.000  0.000  0.000  0.000  0.000    3.56   0.00   0.00      0      0  429.2   0.26   0.26    0.0   0.64    0.34    0.34    0.28    0.10    0.04    0.01    0.00    0.00    0.00    0.00       16      32
 1981 131    40    25    5.9      0  1.215    281    169      0    110    450    450      0     0.0  0.000      0      0  0.000  0.000  0.000  0.000  0.000  0.000  0.000    3.57   0.00   0.00      0      0  432.4   0.28   0.29    0.0   0.66    0.35    0.35    0.29    0.11    0.05    0.01    0.00    0.00    0.00    0.00       18      35
 1981 132    41    26    6.2      0  1.407    324    196      0    116    520    520      0     0.0  0.000      0      0  0.000  0.000  0.000  0.000  0.000  0.000  0.000    3.57   0.00   0.00      0      0  434.7   0.31   0.31    0.0   0.67    0.36    0.36    0.30    0.12    0.05    0.02    0.00    0.00    0.00    0.00       22      37
 1981 133    42    27    6.5      0  1.611    368    227      0    123    595    595      0     0.0  0.000      0      0  0.000  0.000  0.000  0.000  0.000  0.000  0.000    3.59   0.00   0.00      0      0  437.2   0.33   0.33    0.0   0.69    0.38    0.38    0.31    0.13    0.06    0.02    0.00    0.00    0.00    0.00       29      39
 1981 134    43    28    6.8      0  1.802    409    260      0    131    669    669      0     0.0  0.000      0      0  0.000  0.000  0.000  0.000  0.000  0.000  0.000    3.64   0.00   0.00      0      0  440.4   0.36   0.35    0.0   0.71    0.40    0.40    0.32    0.14    0.07    0.03    0.00    0.00    0.00    0.00       46      42
 1981 135    44    29    7.1      0  1.980    452    298      0    139    749    749      0     0.0  0.000      0      0  0.000  0.000  0.000  0.000  0.000  0.000  0.000    3.70   0.00   0.00      0      0  438.6   0.39   0.37    0.0   0.72    0.42    0.42    0.34    0.15    0.08    0.03    0.00    0.00    0.00    0.00       66      45
 1981 136    45    30    7.3      0  2.181    488    335      0    148    823    823      0     0.0  0.000      0      0  0.000  0.000  0.000  0.000  0.000  0.000  0.000    3.75   0.00   0.00      0      0  447.1   0.42   0.39    0.0   0.74    0.44    0.44    0.35    0.16    0.08    0.04    0.01    0.00    0.00    0.00       90      48
 1981 137    46    31    7.6      1  2.369    528    382      0    158    909    909      0     0.0  0.000      0      0  0.000  0.000  0.000  0.000  0.000  0.000  0.000    3.81   0.00   0.00      0      0  448.7   0.45   0.41    0.0   0.76    0.46    0.46    0.37    0.17    0.09    0.04    0.01    0.00    0.00    0.00      117      51
 1981 138    47    32    7.9      1  2.521    567    433      0    168   1000   1000      0     0.0  0.000      0      0  0.000  0.000  0.000  0.000  0.000  0.000  0.000    3.87   0.00   0.00      0      0  444.3   0.48   0.44    0.0   0.77    0.48    0.48    0.38    0.19    0.10    0.05    0.01    0.00    0.00    0.00      150      54
 1981 139    48    33    8.2      1  2.691    617    492      0    179   1109   1109      0     0.0  0.000      0      0  0.000  0.000  0.000  0.000  0.000  0.000  0.000    3.89   0.00   0.00      0      0  436.1   0.51   0.45    0.0   0.79    0.51    0.51    0.40    0.20    0.11    0.05    0.02    0.00    0.00    0.00      173      57
 1981 140    49    34    8.5      3  2.866    672    559      0    191   1230   1230      0     0.0  0.000      0      0  0.000  0.000  0.000  0.000  0.000  0.000  0.000    3.89   0.00   0.00      0      0  426.8   0.54   0.47    0.0   0.81    0.53    0.53    0.42    0.21    0.12    0.06    0.02    0.00    0.00    0.00      193      61
 1981 141    50    35    8.8      3  3.028    724    628      0    202   1352   1356      0     0.0  0.000      4      5  0.000  0.000  0.000  0.000  0.000  0.000  0.000    3.88   0.00   0.00      0      4  418.3   0.57   0.49    0.0   0.82    0.56    0.56    0.44    0.23    0.13    0.07    0.03    0.00    0.00    0.00      214      66
 1981 142    51    36    9.1      3  3.160    774    698      0    213   1471   1489      0     0.0  0.000     18     17  0.000  0.000  0.000  0.000  0.000  0.000  0.000    3.88   0.00   0.01      0     18  408.5   0.60   0.51    0.0   0.84    0.58    0.58    0.46    0.24    0.14    0.07    0.03    0.00    0.00    0.00      234      70
 1981 143    52    37    9.4      3  3.264    815    762      0    222   1577   1619      0     0.0  0.000     42     29  0.000  0.000  0.000  0.000  0.000  0.000  0.000    3.87   0.00   0.03      0     42  400.6   0.64   0.53    0.0   0.86    0.60    0.60    0.47    0.25    0.15    0.08    0.04    0.00    0.00    0.00      254      74
 1981 144    53    38    9.7      3  3.348    854    826      0    231   1680   1758      0     0.0  0.000     78     42  0.000  0.000  0.000  0.000  0.000  0.000  0.000    3.86   0.00   0.04      0     78  391.9   0.67   0.55    0.0   0.87    0.62    0.62    0.49    0.26    0.16    0.08    0.04    0.00    0.00    0.00      272      79
 1981 145    54    39   10.0      3  3.408    888    885      0    238   1773   1898      0     0.0  0.000    125     56  0.000  0.000  0.000  0.000  0.000  0.000  0.000    3.84   0.00   0.07      0    125  383.9   0.70   0.56    0.0   0.89    0.64    0.64    0.50    0.27    0.17    0.09    0.05    0.00    0.00    0.00      289      83
 1981 146    55    40   10.3      3  3.451    917    941      0    244   1857   2041      0     0.0  0.000    184     69  0.000  0.000  0.000  0.000  0.000  0.000  0.000    3.82   0.00   0.09      0    184  376.4   0.74   0.57    0.0   0.90    0.65    0.65    0.51    0.28    0.17    0.09    0.05    0.01    0.00    0.00      304      88
 1981 147    56    41   10.6      5  3.478    942    992      0    248   1933   2188      0     0.0  0.000    254     84  0.000  0.000  0.000  0.000  0.000  0.000  0.000    3.79   0.00   0.12      0    254  369.4   0.77   0.59    0.0   0.92    0.66    0.66    0.51    0.28    0.18    0.09    0.05    0.01    0.00    0.00      318      93
 1981 148    57    42   10.9      5  3.493    964   1041      0    252   2005   2340     16     0.0  0.000    335     98  0.000  0.000  0.000  0.000  0.000  0.000  0.000    3.77   0.00   0.14      0    335  362.2   0.81   0.60    0.0   0.94    0.67    0.67    0.52    0.29    0.18    0.09    0.05    0.01    0.00    0.00      331      99
 1981 149    58    43   11.2      5  3.487    977   1079      6    254   2056   2484     56    11.3  0.003    429    112  0.000  0.000  0.000  0.000  0.000  0.000  0.000    3.74   1.48   0.17      0    429  356.9   0.84   0.60    0.0   0.95    0.67    0.67    0.52    0.29    0.18    0.09    0.05    0.01    0.00    0.00      346     104
 1981 150    59    44   11.2      5  3.466    984   1109     28    254   2092   2633     98    28.7  0.011    540    127  0.000  0.000  0.000  0.000  0.000  0.000  0.000    3.71   5.22   0.21      0    540  352.3   0.88   0.60    0.0   0.97    0.67    0.67    0.52    0.29    0.18    0.10    0.06    0.01    0.00    0.00      361     109
 1981 151    60    45   11.2      5  3.431    983   1127     67    253   2110   2779    143    46.6  0.024    669    142  0.000  0.000  0.000  0.000  0.000  0.000  0.000    3.69   9.95   0.24      0    669  349.1   0.91   0.60    0.0   0.98    0.66    0.66    0.51    0.29    0.18    0.10    0.06    0.01    0.00    0.00      377     114
 1981 152    61    46   11.2      5  3.368    966   1123    123    249   2089   2907    189    64.9  0.042    818    156  0.000  0.000  0.000  0.000  0.000  0.000  0.000    3.64  15.05   0.28      0    818  348.7   0.95   0.60    0.0   1.00    0.65    0.65    0.51    0.29    0.18    0.09    0.05    0.01    0.00    0.00      395     120
 1981 153    62    47   11.2      5  3.298    944   1111    197    243   2056   3038    237    83.2  0.065    982    170  0.000  0.000  0.000  0.000  0.000  0.000  0.000    3.59  20.07   0.32      0    982  349.1   0.95   0.60    0.0   1.02    0.64    0.64    0.50    0.28    0.18    0.09    0.05    0.01    0.00    0.00      414     125
 1981 154    63    48   11.2      5  3.223    921   1097    287    238   2017   3176    285   100.8  0.090   1159    184  0.000  0.000  0.000  0.000  0.000  0.000  0.000    3.53  24.80   0.36      0   1159  350.1   0.95   0.60    0.0   1.03    0.63    0.63    0.49    0.27    0.17    0.09    0.05    0.01    0.00    0.00      435     130
 1981 155    64    49   11.2      5  3.143    895   1080    397    232   1975   3312    334   118.8  0.120   1337    197  0.000  0.000  0.000  0.000  0.000  0.000  0.000    3.46  29.67   0.40      0   1337  351.3   0.95   0.60    0.0   1.03    0.61    0.61    0.48    0.27    0.17    0.09    0.05    0.01    0.00    0.00      457     135
 1981 156    65    50   11.2      5  3.056    867   1064    524    227   1931   3445    384   136.5  0.152   1514    208  0.000  0.000  0.000  0.000  0.000  0.000  0.000    3.38  34.63   0.44      0   1514  352.4   0.95   0.60    0.0   1.05    0.60    0.60    0.47    0.26    0.16    0.09    0.05    0.01    0.00    0.00      481     140
 1981 157    66    51   11.2      5  2.964    838   1046    671    221   1885   3575    434   154.8  0.188   1690    216  0.000  0.000  0.000  0.000  0.000  0.000  0.000    3.30  39.71   0.47      0   1690  353.7   0.95   0.60    0.0   1.07    0.59    0.59    0.46    0.26    0.16    0.08    0.05    0.01    0.00    0.00      506     145
 1981 158    67    52   11.2      5  2.873    809   1029    844    216   1838   3689    533   158.3  0.229   1851    220  0.000  0.000  0.000  0.000  0.000  0.000  0.000    3.20  45.59   0.50      0   1851  355.0   0.95   0.60    0.0   1.07    0.58    0.58    0.45    0.25    0.16    0.08    0.05    0.01    0.00    0.00      534     150
 1981 159    68    53   11.2      7  2.782    781   1014   1028    211   1795   3818    533   192.9  0.269   2024    223  0.000  0.000  0.000  0.000  0.000  0.000  0.000    3.10  50.82   0.53      0   2024  356.0   0.95   0.60    0.0   1.07    0.56    0.56    0.44    0.25    0.15    0.08    0.05    0.01    0.00    0.00      555     154
 1981 160    69    54   11.2      7  2.057    576    946   1208    207   1521   3697    565   213.8  0.327   2175    218  0.000  0.000  0.000  0.000  0.000  0.000  0.000    2.93  55.56   0.59      0   2175  357.4   0.95   0.60    0.0   1.07    0.55    0.55    0.43    0.24    0.15    0.08    0.05    0.01    0.00    0.00      827     158
 1981 161    70    55   11.2      7  1.522    424    894   1361    202   1318   3621    578   235.5  0.376   2302    207  0.000  0.000  0.000  0.000  0.000  0.000  0.000    2.76  59.10   0.64      0   2302  358.7   0.95   0.60    0.0   1.07    0.54    0.54    0.42    0.24    0.15    0.08    0.05    0.01    0.00    0.00     1030     163
 1981 162    71    56   11.2      7  1.127    313    855   1483    198   1168   3584    578   256.7  0.414   2416    193  0.000  0.000  0.000  0.000  0.000  0.000  0.000    2.59  61.41   0.67      0   2416  360.0   0.95   0.60    0.0   1.07    0.53    0.53    0.41    0.23    0.15    0.08    0.04    0.01    0.00    0.00     1168     167
 1981 163    72    57   11.2      7  0.835    231    824   1570    193   1056   3550    578   271.8  0.442   2494    181  0.000  0.000  0.000  0.000  0.000  0.000  0.000    2.45  62.96   0.70      0   2494  361.4   0.95   0.60    0.0   1.07    0.52    0.52    0.40    0.23    0.14    0.07    0.04    0.01    0.00    0.00     1269     171
 1981 164    73    58   11.2      7  0.620    171    801   1643    189    972   3531    578   284.3  0.465   2559    173  0.000  0.000  0.000  0.000  0.000  0.000  0.000    2.31  64.20   0.72      0   2559  362.7   0.95   0.60    0.0   1.07    0.51    0.51    0.39    0.22    0.14    0.07    0.04    0.01    0.00    0.00     1345     175
 1981 165    74    59   11.2      7  0.461    127    782   1696    185    909   3513    578   293.5  0.483   2604    168  0.000  0.000  0.000  0.000  0.000  0.000  0.000    2.19  65.11   0.74      0   2604  364.0   0.95   0.60    0.0   1.07    0.50    0.50    0.39    0.22    0.14    0.07    0.04    0.01    0.00    0.00     1400     179
 1981 166    75    60   11.2      7  0.342     94    767   1734    180    861   3497    578   300.1  0.496   2636    165  0.000  0.000  0.000  0.000  0.000  0.000  0.000    2.08  65.79   0.75      0   2636  365.4   0.95   0.60    0.0   1.07    0.49    0.49    0.38    0.21    0.13    0.07    0.04    0.01    0.00    0.00     1441     183
 1981 167    76    61   11.2      7  0.256     70    756   1757    177    826   3480    578   304.1  0.505   2654    165  0.000  0.000  0.000  0.000  0.000  0.000  0.000    2.01  66.21   0.76      0   2654  366.5   0.95   0.60    0.0   1.07    0.48    0.48    0.37    0.21    0.13    0.07    0.04    0.01    0.00    0.00     1472     187
 1981 168    77    62   11.2      8  0.191     52    747   1772    173    799   3464    578   306.6  0.511   2665    165  0.000  0.000  0.000  0.000  0.000  0.000  0.000    1.97  66.48   0.77      0   2665  367.7   0.95   0.60    0.0   1.07    0.47    0.47    0.36    0.20    0.13    0.07    0.04    0.01    0.00    0.00     1494     190

*DSSAT Cropping System Model Ver. 4.6.1.000 -release      JUL 11, 2017; 16:24:53
                                                                                
*RUN   3        : SIM                       CRGRO046 7\000007    1              
 MODEL          : CRGRO046 - Dry bean                                           
 EXPERIMENT     : 7\000007 BN PALMIRA_ANALISIS SENSIBILIDAD                     
 DATA PATH      : D:\B\0\00000                                                  
 TREATMENT  1   : SIM                       CRGRO046                            
  
!                                                                                                                                                                                                                                                    Root Dens. (cm/cm3) by soil depth (cm):
!                                                                                                                                                                                                                                                    0-5    5-15   15-25   25-35   35-50   50-65   65-80   80-99  99-122 122-209
@YEAR DOY   DAS   DAP   L#SD   GSTD   LAID   LWAD   SWAD   GWAD   RWAD   VWAD   CWAD   G#AD    GWGD   HIAD   PWAD   P#AD   WSPD   WSGD   NSTD  PST1A  PST2A   KSTD   EWSD    LN%D   SH%D   HIPD   PWDD   PWTD   SLAD   CHTD   CWID   NWAD   RDPD    RL1D    RL2D    RL3D    RL4D    RL5D    RL6D    RL7D    RL8D    RL9D   RL10D    SNW0C   SNW1C
 1982 106    15     0    0.0      0  0.000      0      0      0      0      0      0      0     0.0  0.000      0      0  0.000  0.000  0.000  0.000  0.000  0.000  0.000    0.00   0.00   0.00      0      0    0.0   0.00   0.00    0.0   0.00    0.00    0.00    0.00    0.00    0.00    0.00    0.00    0.00    0.00    0.00        0       0
 1982 107    16     1    0.0      0  0.000      0      0      0      0      0      0      0     0.0  0.000      0      0  0.000  0.000  0.000  0.000  0.000  0.000  0.000    0.00   0.00   0.00      0      0    0.0   0.00   0.00    0.0   0.00    0.00    0.00    0.00    0.00    0.00    0.00    0.00    0.00    0.00    0.00        0       0
 1982 108    17     2    0.0      0  0.000      0      0      0      0      0      0      0     0.0  0.000      0      0  0.000  0.000  0.000  0.000  0.000  0.000  0.000    0.00   0.00   0.00      0      0    0.0   0.00   0.00    0.0   0.00    0.00    0.00    0.00    0.00    0.00    0.00    0.00    0.00    0.00    0.00        0       0
 1982 109    18     3    0.0      0  0.000      0      0      0      0      0      0      0     0.0  0.000      0      0  0.000  0.000  0.000  0.000  0.000  0.000  0.000    0.00   0.00   0.00      0      0    0.0   0.00   0.00    0.0   0.00    0.00    0.00    0.00    0.00    0.00    0.00    0.00    0.00    0.00    0.00        0       0
 1982 110    19     4    0.0      0  0.000      0      0      0      0      0      0      0     0.0  0.000      0      0  0.000  0.000  0.000  0.000  0.000  0.000  0.000    0.00   0.00   0.00      0      0    0.0   0.00   0.00    0.0   0.00    0.00    0.00    0.00    0.00    0.00    0.00    0.00    0.00    0.00    0.00        0       0
 1982 111    20     5    0.2      0  0.079     31     13      0     43     44     44      0     0.0  0.000      0      0  0.000  0.000  0.000  0.000  0.000  0.000  0.000    3.84   0.00   0.00      0      0  256.8   0.04   0.03    0.0   0.27    0.15    0.15    0.15    0.00    0.00    0.00    0.00    0.00    0.00    0.00        0       1
 1982 112    21     6    0.5      0  0.082     31     14      0     51     45     45      0     0.0  0.000      0      0  0.000  0.000  0.664  0.000  0.000  0.000  0.000    3.78   0.00   0.00      0      0  261.1   0.05   0.03    0.0   0.29    0.18    0.18    0.18    0.01    0.00    0.00    0.00    0.00    0.00    0.00        0       2
 1982 113    22     7    0.8      0  0.084     32     15      0     59     46     46      0     0.0  0.000      0      0  0.000  0.000  0.741  0.000  0.000  0.000  0.000    3.73   0.00   0.00      0      0  264.7   0.06   0.04    0.0   0.31    0.21    0.21    0.20    0.02    0.00    0.00    0.00    0.00    0.00    0.00        0       3
 1982 114    23     8    1.1      0  0.088     32     16      0     67     49     49      0     0.0  0.000      0      0  0.000  0.000  0.543  0.000  0.000  0.000  0.000    3.71   0.00   0.00      0      0  270.2   0.07   0.04    0.0   0.33    0.24    0.24    0.22    0.03    0.00    0.00    0.00    0.00    0.00    0.00        0       4
 1982 115    24     9    1.4      0  0.092     33     18      0     74     51     51      0     0.0  0.000      0      0  0.000  0.000  0.485  0.000  0.000  0.000  0.000    3.69   0.00   0.00      0      0  275.5   0.08   0.05    0.0   0.36    0.26    0.26    0.23    0.04    0.00    0.00    0.00    0.00    0.00    0.00        1       6
 1982 116    25    10    1.7      0  0.097     34     21      0     80     55     55      0     0.0  0.000      0      0  0.000  0.000  0.401  0.000  0.000  0.000  0.000    3.66   0.00   0.00      0      0  283.4   0.09   0.06    0.0   0.38    0.28    0.28    0.25    0.05    0.00    0.00    0.00    0.00    0.00    0.00        1       7
 1982 117    26    11    2.0      0  0.112     38     25      0     83     63     63      0     0.0  0.000      0      0  0.000  0.000  0.118  0.000  0.000  0.000  0.000    3.65   0.00   0.00      0      0  296.9   0.10   0.07    0.0   0.40    0.29    0.29    0.25    0.06    0.00    0.00    0.00    0.00    0.00    0.00        2       9
 1982 118    27    12    2.2      0  0.134     42     28      0     84     70     70      0     0.0  0.000      0      0  0.000  0.000  0.058  0.000  0.000  0.000  0.000    3.60   0.00   0.00      0      0  321.5   0.11   0.07    0.0   0.42    0.29    0.29    0.25    0.06    0.00    0.00    0.00    0.00    0.00    0.00        2      10
 1982 119    28    13    2.5      0  0.160     47     33      0     85     80     80      0     0.0  0.000      0      0  0.000  0.000  0.000  0.000  0.000  0.000  0.000    3.57   0.00   0.00      0      0  339.5   0.12   0.08    0.0   0.44    0.30    0.30    0.25    0.07    0.01    0.00    0.00    0.00    0.00    0.00        2      12
 1982 120    29    14    2.8      0  0.189     54     39      0     87     93     93      0     0.0  0.000      0      0  0.000  0.000  0.000  0.000  0.000  0.000  0.000    3.53   0.00   0.00      0      0  351.7   0.13   0.09    0.0   0.46    0.30    0.30    0.26    0.07    0.01    0.00    0.00    0.00    0.00    0.00        3      14
 1982 121    30    15    3.1      0  0.243     66     42      0     87    108    108      0     0.0  0.000      0      0  0.000  0.000  0.000  0.000  0.000  0.000  0.000    3.53   0.00   0.00      0      0  369.7   0.14   0.10    0.0   0.48    0.30    0.30    0.25    0.07    0.01    0.00    0.00    0.00    0.00    0.00        4      16
 1982 122    31    16    3.4      0  0.298     77     48      0     87    126    126      0     0.0  0.000      0      0  0.000  0.000  0.000  0.000  0.000  0.000  0.000    3.52   0.00   0.00      0      0  384.9   0.15   0.11    0.0   0.50    0.30    0.30    0.26    0.07    0.01    0.00    0.00    0.00    0.00    0.00        4      18
 1982 123    32    17    3.7      0  0.352     90     57      0     89    147    147      0     0.0  0.000      0      0  0.000  0.000  0.000  0.000  0.000  0.000  0.000    3.51   0.00   0.00      0      0  393.1   0.16   0.13    0.0   0.52    0.30    0.30    0.26    0.08    0.02    0.00    0.00    0.00    0.00    0.00        5      19
 1982 124    33    18    4.0      0  0.407    101     69      0     91    171    171      0     0.0  0.000      0      0  0.000  0.000  0.000  0.000  0.000  0.000  0.000    3.51   0.00   0.00      0      0  400.9   0.17   0.15    0.0   0.54    0.31    0.31    0.26    0.08    0.02    0.00    0.00    0.00    0.00    0.00        6      21
 1982 125    34    19    4.3      0  0.464    114     84      0     94    197    197      0     0.0  0.000      0      0  0.000  0.000  0.000  0.000  0.000  0.000  0.000    3.50   0.00   0.00      0      0  409.0   0.18   0.17    0.0   0.56    0.31    0.31    0.26    0.09    0.02    0.00    0.00    0.00    0.00    0.00        7      23
 1982 126    35    20    4.6      0  0.572    138     92      0     94    229    229      0     0.0  0.000      0      0  0.000  0.000  0.000  0.000  0.000  0.000  0.000    3.53   0.00   0.00      0      0  414.7   0.20   0.20    0.0   0.58    0.31    0.31    0.26    0.09    0.03    0.00    0.00    0.00    0.00    0.00        9      25
 1982 127    36    21    4.9      0  0.702    166    101      0     95    267    267      0     0.0  0.000      0      0  0.000  0.000  0.000  0.000  0.000  0.000  0.000    3.55   0.00   0.00      0      0  422.0   0.22   0.22    0.0   0.60    0.32    0.32    0.26    0.09    0.03    0.00    0.00    0.00    0.00    0.00       10      27
 1982 128    37    22    5.2      0  0.831    194    117      0     99    311    311      0     0.0  0.000      0      0  0.000  0.000  0.000  0.000  0.000  0.000  0.000    3.55   0.00   0.00      0      0  428.0   0.23   0.24    0.0   0.62    0.32    0.32    0.27    0.09    0.03    0.01    0.00    0.00    0.00    0.00       12      29
 1982 129    38    23    5.5      0  0.976    226    136      0    102    361    361      0     0.0  0.000      0      0  0.000  0.000  0.000  0.000  0.000  0.000  0.000    3.56   0.00   0.00      0      0  432.6   0.26   0.26    0.0   0.63    0.33    0.33    0.27    0.10    0.04    0.01    0.00    0.00    0.00    0.00       14      31
 1982 130    39    24    5.8      0  1.135    261    158      0    107    419    419      0     0.0  0.000      0      0  0.000  0.000  0.000  0.000  0.000  0.000  0.000    3.56   0.00   0.00      0      0  434.7   0.28   0.29    0.0   0.65    0.34    0.34    0.28    0.11    0.04    0.01    0.00    0.00    0.00    0.00       17      34
 1982 131    40    25    6.1      0  1.320    302    183      0    112    485    485      0     0.0  0.000      0      0  0.000  0.000  0.000  0.000  0.000  0.000  0.000    3.57   0.00   0.00      0      0  437.6   0.30   0.31    0.0   0.67    0.35    0.35    0.29    0.11    0.05    0.02    0.00    0.00    0.00    0.00       20      36
 1982 132    41    26    6.4      0  1.521    347    213      0    119    560    560      0     0.0  0.000      0      0  0.000  0.000  0.000  0.000  0.000  0.000  0.000    3.57   0.00   0.00      0      0  438.5   0.33   0.33    0.0   0.68    0.37    0.37    0.30    0.12    0.06    0.02    0.00    0.00    0.00    0.00       24      38
 1982 133    42    27    6.7      0  1.715    386    244      0    126    631    631      0     0.0  0.000      0      0  0.000  0.000  0.000  0.000  0.000  0.000  0.000    3.63   0.00   0.00      0      0  444.0   0.36   0.35    0.0   0.70    0.39    0.39    0.31    0.13    0.06    0.02    0.00    0.00    0.00    0.00       40      41
 1982 134    43    28    7.0      0  1.906    427    281      0    134    708    708      0     0.0  0.000      0      0  0.000  0.000  0.000  0.000  0.000  0.000  0.000    3.69   0.00   0.00      0      0  446.2   0.39   0.38    0.0   0.72    0.40    0.40    0.33    0.14    0.07    0.03    0.00    0.00    0.00    0.00       60      44
 1982 135    44    29    7.3      0  2.093    468    321      0    143    790    790      0     0.0  0.000      0      0  0.000  0.000  0.000  0.000  0.000  0.000  0.000    3.75   0.00   0.00      0      0  446.9   0.42   0.40    0.0   0.74    0.43    0.43    0.34    0.16    0.08    0.03    0.01    0.00    0.00    0.00       83      47
 1982 136    45    30    7.6      0  2.255    509    367      0    153    876    876      0     0.0  0.000      0      0  0.000  0.000  0.000  0.000  0.000  0.000  0.000    3.81   0.00   0.00      0      0  443.1   0.45   0.42    0.0   0.75    0.45    0.45    0.36    0.17    0.09    0.04    0.01    0.00    0.00    0.00      112      50
 1982 137    46    31    7.9      1  2.417    547    419      0    164    966    966      0     0.0  0.000      0      0  0.000  0.000  0.000  0.000  0.000  0.000  0.000    3.87   0.00   0.00      0      0  441.9   0.48   0.44    0.0   0.77    0.47    0.47    0.38    0.18    0.10    0.05    0.01    0.00    0.00    0.00      144      53
 1982 138    47    32    8.2      1  2.603    592    476      0    174   1067   1067      0     0.0  0.000      0      0  0.000  0.000  0.000  0.000  0.000  0.000  0.000    3.89   0.00   0.00      0      0  440.0   0.51   0.46    0.0   0.79    0.50    0.50    0.39    0.19    0.11    0.05    0.02    0.00    0.00    0.00      167      57
 1982 139    48    33    8.5      3  2.780    643    539      0    185   1182   1182      0     0.0  0.000      0      0  0.000  0.000  0.000  0.000  0.000  0.000  0.000    3.89   0.00   0.00      0      0  432.4   0.54   0.48    0.0   0.80    0.52    0.52    0.41    0.21    0.12    0.06    0.02    0.00    0.00    0.00      184      60
 1982 140    49    34    8.8      3  2.950    694    608      0    197   1302   1302      0     0.0  0.000      0      0  0.000  0.000  0.000  0.000  0.000  0.000  0.000    3.88   0.00   0.00      0      0  425.1   0.57   0.50    0.0   0.82    0.55    0.55    0.43    0.22    0.13    0.06    0.03    0.00    0.00    0.00      204      64
 1982 141    50    35    9.1      3  3.098    737    670      0    207   1407   1411      0     0.0  0.000      4      5  0.000  0.000  0.000  0.000  0.000  0.000  0.000    3.88   0.00   0.00      0      4  420.5   0.60   0.52    0.0   0.83    0.57    0.57    0.45    0.23    0.14    0.07    0.03    0.00    0.00    0.00      223      68
 1982 142    51    36    9.3      3  3.227    782    739      0    217   1521   1539      0     0.0  0.000     18     16  0.000  0.000  0.000  0.000  0.000  0.000  0.000    3.87   0.00   0.01      0     18  412.6   0.63   0.53    0.0   0.85    0.59    0.59    0.46    0.25    0.15    0.07    0.04    0.00    0.00    0.00      241      72
 1982 143    52    37    9.6      3  3.324    826    809      0    227   1635   1677      0     0.0  0.000     42     29  0.000  0.000  0.000  0.000  0.000  0.000  0.000    3.86   0.00   0.03      0     42  402.5   0.66   0.55    0.0   0.87    0.61    0.61    0.48    0.26    0.16    0.08    0.04    0.00    0.00    0.00      259      76
 1982 144    53    38    9.9      3  3.396    865    878      0    235   1743   1821      0     0.0  0.000     78     42  0.000  0.000  0.000  0.000  0.000  0.000  0.000    3.85   0.00   0.04      0     78  392.5   0.70   0.56    0.0   0.88    0.63    0.63    0.49    0.27    0.16    0.08    0.04    0.00    0.00    0.00      278      81
 1982 145    54    39   10.2      3  3.440    889    928      0    241   1817   1943      0     0.0  0.000    126     56  0.000  0.000  0.000  0.000  0.000  0.000  0.000    3.83   0.00   0.06      0    126  386.8   0.73   0.58    0.0   0.90    0.64    0.64    0.50    0.28    0.17    0.09    0.05    0.01    0.00    0.00      295      85
 1982 146    55    40   10.5      3  3.486    921    988      0    247   1909   2092      0     0.0  0.000    183     69  0.000  0.000  0.000  0.000  0.000  0.000  0.000    3.81   0.00   0.09      0    183  378.5   0.77   0.59    0.0   0.91    0.66    0.66    0.51    0.28    0.17    0.09    0.05    0.01    0.00    0.00      307      90
 1982 147    56    41   10.8      5  3.503    941   1036      0    251   1977   2231      0     0.0  0.000    254     83  0.000  0.000  0.000  0.000  0.000  0.000  0.000    3.78   0.00   0.11      0    254  372.1   0.80   0.60    0.0   0.93    0.66    0.66    0.52    0.29    0.18    0.09    0.05    0.01    0.00    0.00      322      95
 1982 148    57    42   11.0      5  3.512    960   1082      0    254   2043   2378     17     0.0  0.000    335     97  0.000  0.000  0.000  0.000  0.000  0.000  0.000    3.75   0.00   0.14      0    335  365.7   0.84   0.60    0.0   0.94    0.67    0.67    0.52    0.29    0.18    0.09    0.05    0.01    0.00    0.00      334     101
 1982 149    58    43   11.3      5  3.504    974   1122      7    256   2095   2525     55    12.1  0.003    429    111  0.000  0.000  0.000  0.000  0.000  0.000  0.000    3.73   1.55   0.17      0    429  359.8   0.87   0.60    0.0   0.96    0.67    0.67    0.52    0.29    0.18    0.10    0.06    0.01    0.00    0.00      348     106
 1982 150    59    44   11.3      5  3.480    981   1154     28    257   2134   2674     98    28.6  0.011    540    126  0.000  0.000  0.000  0.000  0.000  0.000  0.000    3.71   5.21   0.20      0    540  354.8   0.91   0.60    0.0   0.98    0.67    0.67    0.52    0.29    0.18    0.10    0.06    0.01    0.00    0.00      364     111
 1982 151    60    45   11.3      5  3.439    979   1175     66    256   2155   2819    144    45.6  0.023    665    141  0.000  0.000  0.000  0.000  0.000  0.000  0.000    3.68   9.88   0.24      0    665  351.1   0.95   0.60    0.0   0.99    0.67    0.67    0.52    0.29    0.18    0.10    0.06    0.01    0.00    0.00      381     117
 1982 152    61    46   11.3      5  3.376    967   1181    121    252   2148   2956    192    63.1  0.041    808    155  0.000  0.000  0.000  0.000  0.000  0.000  0.000    3.62  14.98   0.27      0    808  349.1   0.98   0.60    0.0   1.01    0.66    0.66    0.51    0.29    0.18    0.10    0.06    0.01    0.00    0.00      401     122
 1982 153    62    47   11.3      5  3.303    947   1175    195    248   2122   3090    234    83.1  0.063    968    169  0.000  0.000  0.000  0.000  0.000  0.000  0.000    3.57  20.10   0.31      0    968  348.6   0.98   0.60    0.0   1.03    0.65    0.65    0.50    0.29    0.18    0.09    0.06    0.01    0.00    0.00      421     128
 1982 154    63    48   11.3      5  3.221    921   1157    285    242   2078   3215    330    86.3  0.089   1138    182  0.000  0.000  0.000  0.000  0.000  0.000  0.000    3.50  25.05   0.35      0   1138  349.8   0.98   0.60    0.0   1.03    0.63    0.63    0.49    0.28    0.18    0.09    0.05    0.01    0.00    0.00      447     133
 1982 155    64    49   11.3      5  3.136    893   1139    416    236   2032   3336    379   109.7  0.125   1304    193  0.000  0.000  0.000  0.000  0.000  0.000  0.000    3.43  31.90   0.39      0   1304  351.1   0.98   0.60    0.0   1.03    0.62    0.62    0.48    0.27    0.17    0.09    0.05    0.01    0.00    0.00      471     138
 1982 156    65    50   11.3      5  3.046    865   1121    564    230   1985   3467    429   131.3  0.163   1482    201  0.000  0.000  0.000  0.000  0.000  0.000  0.000    3.35  38.05   0.43      0   1482  352.4   0.98   0.60    0.0   1.03    0.61    0.61    0.47    0.27    0.17    0.09    0.05    0.01    0.00    0.00      495     144
 1982 157    66    51   11.3      5  2.954    835   1102    731    225   1937   3599    480   152.4  0.203   1662    205  0.000  0.000  0.000  0.000  0.000  0.000  0.000    3.25  43.99   0.46      0   1662  353.7   0.98   0.60    0.0   1.03    0.59    0.59    0.46    0.26    0.16    0.09    0.05    0.01    0.00    0.00      520     148
 1982 158    67    52   11.3      5  2.858    806   1085    911    220   1891   3723    513   177.5  0.245   1832    203  0.000  0.000  0.000  0.000  0.000  0.000  0.000    3.15  49.76   0.49      0   1832  354.6   0.98   0.60    0.0   1.04    0.58    0.58    0.45    0.26    0.16    0.09    0.05    0.01    0.00    0.00      559     153
 1982 159    68    53   11.3      7  2.765    777   1069   1106    215   1846   3846    530   208.9  0.288   2000    194  0.000  0.000  0.000  0.000  0.000  0.000  0.000    3.05  55.32   0.52      0   2000  355.8   0.98   0.60    0.0   1.04    0.57    0.57    0.44    0.25    0.16    0.08    0.05    0.01    0.00    0.00      596     158
 1982 160    69    54   11.3      7  2.042    572   1000   1292    209   1571   3740    535   241.5  0.345   2169    181  0.000  0.000  0.000  0.000  0.000  0.000  0.000    2.85  59.57   0.58      0   2169  357.2   0.98   0.60    0.0   1.04    0.56    0.56    0.43    0.25    0.15    0.08    0.05    0.01    0.00    0.00      855     163
 1982 161    70    55   11.3      7  1.511    421    948   1446    205   1369   3683    535   270.3  0.393   2314    169  0.000  0.000  0.000  0.000  0.000  0.000  0.000    2.68  62.48   0.63      0   2314  358.6   0.98   0.60    0.0   1.04    0.55    0.55    0.42    0.24    0.15    0.08    0.05    0.01    0.00    0.00     1041     167
 1982 162    71    56   11.3      7  1.119    311    909   1568    200   1220   3648    535   293.1  0.430   2428    161  0.000  0.000  0.000  0.000  0.000  0.000  0.000    2.53  64.57   0.67      0   2428  359.8   0.98   0.60    0.0   1.04    0.53    0.53    0.41    0.23    0.15    0.08    0.05    0.01    0.00    0.00     1178     172
 1982 163    72    57   11.3      7  0.830    230    878   1660    195   1108   3621    535   310.4  0.459   2513    156  0.000  0.000  0.000  0.000  0.000  0.000  0.000    2.39  66.07   0.69      0   2513  361.2   0.98   0.60    0.0   1.04    0.52    0.52    0.40    0.23    0.14    0.08    0.05    0.01    0.00    0.00     1279     176
 1982 164    73    58   11.3      7  0.616    170    855   1731    191   1025   3601    535   323.5  0.481   2576    153  0.000  0.000  0.000  0.000  0.000  0.000  0.000    2.26  67.17   0.72      0   2576  362.4   0.98   0.60    0.0   1.04    0.51    0.51    0.40    0.22    0.14    0.07    0.04    0.01    0.00    0.00     1354     180
 1982 165    74    59   11.3      7  0.458    126    836   1781    186    962   3582    535   332.9  0.497   2620    153  0.000  0.000  0.000  0.000  0.000  0.000  0.000    2.14  67.97   0.73      0   2620  363.8   0.98   0.60    0.0   1.04    0.50    0.50    0.39    0.22    0.14    0.07    0.04    0.01    0.00    0.00     1409     184
 1982 166    75    60   11.3      7  0.341     93    821   1818    182    914   3566    535   339.8  0.510   2651    153  0.000  0.000  0.000  0.000  0.000  0.000  0.000    2.03  68.56   0.74      0   2651  365.0   0.98   0.60    0.0   1.04    0.49    0.49    0.38    0.22    0.14    0.07    0.04    0.01    0.00    0.00     1450     188
 1982 167    76    61   11.3      7  0.254     69    809   1842    178    878   3549    535   344.3  0.519   2671    153  0.000  0.000  0.000  0.000  0.000  0.000  0.000    1.96  68.97   0.75      0   2671  366.3   0.98   0.60    0.0   1.04    0.48    0.48    0.37    0.21    0.13    0.07    0.04    0.01    0.00    0.00     1480     192
 1982 168    77    62   11.3      8  0.190     52    800   1856    174    852   3533    535   346.9  0.525   2681    153  0.000  0.000  0.000  0.000  0.000  0.000  0.000    1.92  69.21   0.76      0   2681  367.5   0.98   0.60    0.0   1.06    0.47    0.47    0.36    0.21    0.13    0.07    0.04    0.01    0.00    0.00     1503     196

*DSSAT Cropping System Model Ver. 4.6.1.000 -release      JUL 11, 2017; 16:24:53
                                                                                
*RUN   4        : SIM                       CRGRO046 7\000007    1              
 MODEL          : CRGRO046 - Dry bean                                           
 EXPERIMENT     : 7\000007 BN PALMIRA_ANALISIS SENSIBILIDAD                     
 DATA PATH      : D:\B\0\00000                                                  
 TREATMENT  1   : SIM                       CRGRO046                            
  
!                                                                                                                                                                                                                                                    Root Dens. (cm/cm3) by soil depth (cm):
!                                                                                                                                                                                                                                                    0-5    5-15   15-25   25-35   35-50   50-65   65-80   80-99  99-122 122-209
@YEAR DOY   DAS   DAP   L#SD   GSTD   LAID   LWAD   SWAD   GWAD   RWAD   VWAD   CWAD   G#AD    GWGD   HIAD   PWAD   P#AD   WSPD   WSGD   NSTD  PST1A  PST2A   KSTD   EWSD    LN%D   SH%D   HIPD   PWDD   PWTD   SLAD   CHTD   CWID   NWAD   RDPD    RL1D    RL2D    RL3D    RL4D    RL5D    RL6D    RL7D    RL8D    RL9D   RL10D    SNW0C   SNW1C
 1983 106    15     0    0.0      0  0.000      0      0      0      0      0      0      0     0.0  0.000      0      0  0.000  0.000  0.000  0.000  0.000  0.000  0.000    0.00   0.00   0.00      0      0    0.0   0.00   0.00    0.0   0.00    0.00    0.00    0.00    0.00    0.00    0.00    0.00    0.00    0.00    0.00        0       0
 1983 107    16     1    0.0      0  0.000      0      0      0      0      0      0      0     0.0  0.000      0      0  0.000  0.000  0.000  0.000  0.000  0.000  0.000    0.00   0.00   0.00      0      0    0.0   0.00   0.00    0.0   0.00    0.00    0.00    0.00    0.00    0.00    0.00    0.00    0.00    0.00    0.00        0       0
 1983 108    17     2    0.0      0  0.000      0      0      0      0      0      0      0     0.0  0.000      0      0  0.000  0.000  0.000  0.000  0.000  0.000  0.000    0.00   0.00   0.00      0      0    0.0   0.00   0.00    0.0   0.00    0.00    0.00    0.00    0.00    0.00    0.00    0.00    0.00    0.00    0.00        0       0
 1983 109    18     3    0.0      0  0.000      0      0      0      0      0      0      0     0.0  0.000      0      0  0.000  0.000  0.000  0.000  0.000  0.000  0.000    0.00   0.00   0.00      0      0    0.0   0.00   0.00    0.0   0.00    0.00    0.00    0.00    0.00    0.00    0.00    0.00    0.00    0.00    0.00        0       0
 1983 110    19     4    0.0      0  0.000      0      0      0      0      0      0      0     0.0  0.000      0      0  0.000  0.000  0.000  0.000  0.000  0.000  0.000    0.00   0.00   0.00      0      0    0.0   0.00   0.00    0.0   0.00    0.00    0.00    0.00    0.00    0.00    0.00    0.00    0.00    0.00    0.00        0       0
 1983 111    20     5    0.2      0  0.079     31     13      0     43     44     44      0     0.0  0.000      0      0  0.000  0.000  0.000  0.000  0.000  0.000  0.000    3.84   0.00   0.00      0      0  256.7   0.04   0.03    0.0   0.27    0.15    0.15    0.15    0.00    0.00    0.00    0.00    0.00    0.00    0.00        0       1
 1983 112    21     6    0.5      0  0.082     31     14      0     51     45     45      0     0.0  0.000      0      0  0.000  0.000  0.654  0.000  0.000  0.000  0.000    3.78   0.00   0.00      0      0  261.7   0.05   0.03    0.0   0.29    0.18    0.18    0.18    0.01    0.00    0.00    0.00    0.00    0.00    0.00        0       2
 1983 113    22     7    0.8      0  0.084     32     15      0     59     46     46      0     0.0  0.000      0      0  0.000  0.000  0.740  0.000  0.000  0.000  0.000    3.72   0.00   0.00      0      0  265.3   0.06   0.04    0.0   0.31    0.21    0.21    0.20    0.02    0.00    0.00    0.00    0.00    0.00    0.00        0       3
 1983 114    23     8    1.1      0  0.087     32     16      0     67     48     48      0     0.0  0.000      0      0  0.000  0.000  0.595  0.000  0.000  0.000  0.000    3.70   0.00   0.00      0      0  271.2   0.07   0.04    0.0   0.33    0.24    0.24    0.22    0.03    0.00    0.00    0.00    0.00    0.00    0.00        0       4
 1983 115    24     9    1.4      0  0.091     33     18      0     74     51     51      0     0.0  0.000      0      0  0.000  0.000  0.487  0.000  0.000  0.000  0.000    3.68   0.00   0.00      0      0  277.5   0.08   0.05    0.0   0.36    0.26    0.26    0.23    0.04    0.00    0.00    0.00    0.00    0.00    0.00        1       6
 1983 116    25    10    1.7      0  0.096     34     21      0     80     55     55      0     0.0  0.000      0      0  0.000  0.000  0.375  0.000  0.000  0.000  0.000    3.66   0.00   0.00      0      0  285.2   0.09   0.06    0.0   0.38    0.28    0.28    0.24    0.05    0.00    0.00    0.00    0.00    0.00    0.00        1       7
 1983 117    26    11    2.0      0  0.112     37     25      0     83     62     62      0     0.0  0.000      0      0  0.000  0.000  0.154  0.000  0.000  0.000  0.000    3.64   0.00   0.00      0      0  301.1   0.10   0.07    0.0   0.40    0.29    0.29    0.25    0.06    0.00    0.00    0.00    0.00    0.00    0.00        2       9
 1983 118    27    12    2.3      0  0.138     42     28      0     84     71     71      0     0.0  0.000      0      0  0.000  0.000  0.040  0.000  0.000  0.000  0.000    3.59   0.00   0.00      0      0  326.2   0.11   0.07    0.0   0.42    0.29    0.29    0.25    0.06    0.00    0.00    0.00    0.00    0.00    0.00        2      11
 1983 119    28    13    2.6      0  0.165     48     33      0     85     81     81      0     0.0  0.000      0      0  0.000  0.000  0.000  0.000  0.000  0.000  0.000    3.56   0.00   0.00      0      0  342.8   0.12   0.08    0.0   0.44    0.30    0.30    0.25    0.07    0.01    0.00    0.00    0.00    0.00    0.00        2      12
 1983 120    29    14    2.9      0  0.197     55     39      0     87     94     94      0     0.0  0.000      0      0  0.000  0.000  0.000  0.000  0.000  0.000  0.000    3.53   0.00   0.00      0      0  358.2   0.13   0.09    0.0   0.46    0.30    0.30    0.26    0.07    0.01    0.00    0.00    0.00    0.00    0.00        3      14
 1983 121    30    15    3.2      0  0.253     67     42      0     87    110    110      0     0.0  0.000      0      0  0.000  0.000  0.000  0.000  0.000  0.000  0.000    3.52   0.00   0.00      0      0  374.7   0.14   0.10    0.0   0.48    0.30    0.30    0.25    0.07    0.01    0.00    0.00    0.00    0.00    0.00        4      16
 1983 122    31    16    3.5      0  0.309     80     49      0     87    129    129      0     0.0  0.000      0      0  0.000  0.000  0.000  0.000  0.000  0.000  0.000    3.51   0.00   0.00      0      0  387.9   0.15   0.12    0.0   0.50    0.30    0.30    0.26    0.07    0.01    0.00    0.00    0.00    0.00    0.00        4      18
 1983 123    32    17    3.8      0  0.364     92     58      0     89    150    150      0     0.0  0.000      0      0  0.000  0.000  0.000  0.000  0.000  0.000  0.000    3.51   0.00   0.00      0      0  395.5   0.16   0.14    0.0   0.52    0.30    0.30    0.26    0.08    0.02    0.00    0.00    0.00    0.00    0.00        5      20
 1983 124    33    18    4.1      0  0.419    103     71      0     91    174    174      0     0.0  0.000      0      0  0.000  0.000  0.000  0.000  0.000  0.000  0.000    3.50   0.00   0.00      0      0  406.0   0.17   0.16    0.0   0.54    0.31    0.31    0.26    0.08    0.02    0.00    0.00    0.00    0.00    0.00        6      22
 1983 125    34    19    4.4      0  0.490    119     83      0     93    203    203      0     0.0  0.000      0      0  0.000  0.000  0.000  0.000  0.000  0.000  0.000    3.51   0.00   0.00      0      0  410.4   0.19   0.18    0.0   0.56    0.31    0.31    0.26    0.09    0.02    0.00    0.00    0.00    0.00    0.00        8      24
 1983 126    35    20    4.7      0  0.605    145     92      0     94    237    237      0     0.0  0.000      0      0  0.000  0.000  0.000  0.000  0.000  0.000  0.000    3.53   0.00   0.00      0      0  416.8   0.20   0.20    0.0   0.58    0.31    0.31    0.26    0.09    0.03    0.00    0.00    0.00    0.00    0.00        9      26
 1983 127    36    21    5.0      0  0.743    174    102      0     96    276    276      0     0.0  0.000      0      0  0.000  0.000  0.000  0.000  0.000  0.000  0.000    3.55   0.00   0.00      0      0  426.2   0.22   0.22    0.0   0.60    0.32    0.32    0.26    0.09    0.03    0.00    0.00    0.00    0.00    0.00       11      28
 1983 128    37    22    5.3      0  0.873    204    120      0     99    323    323      0     0.0  0.000      0      0  0.000  0.000  0.000  0.000  0.000  0.000  0.000    3.55   0.00   0.00      0      0  427.9   0.24   0.25    0.0   0.62    0.32    0.32    0.27    0.10    0.03    0.01    0.00    0.00    0.00    0.00       13      30
 1983 129    38    23    5.6      0  1.024    238    140      0    103    378    378      0     0.0  0.000      0      0  0.000  0.000  0.000  0.000  0.000  0.000  0.000    3.56   0.00   0.00      0      0  430.7   0.26   0.27    0.0   0.64    0.33    0.33    0.28    0.10    0.04    0.01    0.00    0.00    0.00    0.00       15      32
 1983 130    39    24    5.9      0  1.198    276    164      0    108    440    440      0     0.0  0.000      0      0  0.000  0.000  0.000  0.000  0.000  0.000  0.000    3.56   0.00   0.00      0      0  434.2   0.29   0.29    0.0   0.66    0.34    0.34    0.28    0.11    0.04    0.01    0.00    0.00    0.00    0.00       18      34
 1983 131    40    25    6.2      0  1.405    317    191      0    114    508    508      0     0.0  0.000      0      0  0.000  0.000  0.000  0.000  0.000  0.000  0.000    3.56   0.00   0.00      0      0  443.0   0.32   0.32    0.0   0.67    0.36    0.36    0.29    0.12    0.05    0.02    0.00    0.00    0.00    0.00       21      37
 1983 132    41    26    6.5      0  1.591    361    221      0    121    582    582      0     0.0  0.000      0      0  0.000  0.000  0.000  0.000  0.000  0.000  0.000    3.60   0.00   0.00      0      0  440.7   0.35   0.34    0.0   0.69    0.37    0.37    0.30    0.13    0.06    0.02    0.00    0.00    0.00    0.00       30      39
 1983 133    42    27    6.8      0  1.776    402    255      0    128    657    657      0     0.0  0.000      0      0  0.000  0.000  0.000  0.000  0.000  0.000  0.000    3.65   0.00   0.00      0      0  441.8   0.38   0.36    0.0   0.71    0.39    0.39    0.32    0.14    0.06    0.03    0.00    0.00    0.00    0.00       48      42
 1983 134    43    28    7.1      0  1.960    443    294      0    137    737    737      0     0.0  0.000      0      0  0.000  0.000  0.000  0.000  0.000  0.000  0.000    3.71   0.00   0.00      0      0  442.0   0.41   0.39    0.0   0.73    0.41    0.41    0.33    0.15    0.07    0.03    0.01    0.00    0.00    0.00       69      45
[...]
 2011 109    18     3    0.0      0  0.000      0      0      0      0      0      0      0     0.0  0.000      0      0  0.000  0.000  0.000  0.000  0.000  0.000  0.000    0.00   0.00   0.00      0      0    0.0   0.00   0.00    0.0   0.00    0.00    0.00    0.00    0.00    0.00    0.00    0.00    0.00    0.00    0.00        0       0
 2011 110    19     4    0.0      0  0.000      0      0      0      0      0      0      0     0.0  0.000      0      0  0.000  0.000  0.000  0.000  0.000  0.000  0.000    0.00   0.00   0.00      0      0    0.0   0.00   0.00    0.0   0.00    0.00    0.00    0.00    0.00    0.00    0.00    0.00    0.00    0.00    0.00        0       0
 2011 111    20     5    0.2      0  0.079     31     13      0     43     44     44      0     0.0  0.000      0      0  0.000  0.000  0.000  0.000  0.000  0.000  0.000    3.84   0.00   0.00      0      0  256.7   0.04   0.03    0.0   0.27    0.15    0.15    0.15    0.00    0.00    0.00    0.00    0.00    0.00    0.00        0       1
 2011 112    21     6    0.5      0  0.082     31     14      0     51     45     45      0     0.0  0.000      0      0  0.000  0.000  0.674  0.000  0.000  0.000  0.000    3.78   0.00   0.00      0      0  261.2   0.05   0.03    0.0   0.29    0.19    0.19    0.18    0.01    0.00    0.00    0.00    0.00    0.00    0.00        0       2
 2011 113    22     7    0.8      0  0.084     32     15      0     60     47     47      0     0.0  0.000      0      0  0.000  0.000  0.703  0.000  0.000  0.000  0.000    3.73   0.00   0.00      0      0  264.8   0.06   0.04    0.0   0.31    0.22    0.22    0.20    0.02    0.00    0.00    0.00    0.00    0.00    0.00        0       3
 2011 114    23     8    1.1      0  0.088     32     16      0     68     49     49      0     0.0  0.000      0      0  0.000  0.000  0.555  0.000  0.000  0.000  0.000    3.71   0.00   0.00      0      0  270.3   0.07   0.04    0.0   0.33    0.24    0.24    0.22    0.03    0.00    0.00    0.00    0.00    0.00    0.00        0       4
 2011 115    24     9    1.4      0  0.092     33     19      0     76     52     52      0     0.0  0.000      0      0  0.000  0.000  0.476  0.000  0.000  0.000  0.000    3.68   0.00   0.00      0      0  277.1   0.08   0.05    0.0   0.36    0.27    0.27    0.24    0.05    0.00    0.00    0.00    0.00    0.00    0.00        1       6
 2011 116    25    10    1.7      0  0.098     34     22      0     82     57     57      0     0.0  0.000      0      0  0.000  0.000  0.298  0.000  0.000  0.000  0.000    3.66   0.00   0.00      0      0  284.0   0.09   0.06    0.0   0.38    0.29    0.29    0.25    0.06    0.00    0.00    0.00    0.00    0.00    0.00        1       7
 2011 117    26    11    2.0      0  0.113     38     27      0     85     64     64      0     0.0  0.000      0      0  0.000  0.000  0.146  0.000  0.000  0.000  0.000    3.63   0.00   0.00      0      0  299.9   0.10   0.07    0.0   0.40    0.30    0.30    0.26    0.06    0.00    0.00    0.00    0.00    0.00    0.00        2       9
 2011 118    27    12    2.3      0  0.140     44     31      0     86     74     74      0     0.0  0.000      0      0  0.000  0.000  0.000  0.000  0.000  0.000  0.000    3.58   0.00   0.00      0      0  320.4   0.11   0.07    0.0   0.42    0.30    0.30    0.26    0.07    0.00    0.00    0.00    0.00    0.00    0.00        2      11
 2011 119    28    13    2.6      0  0.167     50     37      0     88     86     86      0     0.0  0.000      0      0  0.000  0.000  0.000  0.000  0.000  0.000  0.000    3.54   0.00   0.00      0      0  336.3   0.12   0.08    0.0   0.44    0.30    0.30    0.26    0.07    0.01    0.00    0.00    0.00    0.00    0.00        3      13
 2011 120    29    14    2.9      0  0.201     57     43      0     89    100    100      0     0.0  0.000      0      0  0.000  0.000  0.000  0.000  0.000  0.000  0.000    3.52   0.00   0.00      0      0  352.3   0.13   0.09    0.0   0.46    0.31    0.31    0.26    0.07    0.01    0.00    0.00    0.00    0.00    0.00        3      15
 2011 121    30    15    3.2      0  0.259     70     47      0     89    117    117      0     0.0  0.000      0      0  0.000  0.000  0.000  0.000  0.000  0.000  0.000    3.52   0.00   0.00      0      0  369.2   0.14   0.10    0.0   0.48    0.31    0.31    0.26    0.08    0.01    0.00    0.00    0.00    0.00    0.00        4      16
 2011 122    31    16    3.5      0  0.314     83     55      0     91    138    138      0     0.0  0.000      0      0  0.000  0.000  0.000  0.000  0.000  0.000  0.000    3.52   0.00   0.00      0      0  377.3   0.15   0.12    0.0   0.50    0.31    0.31    0.26    0.08    0.01    0.00    0.00    0.00    0.00    0.00        5      18
 2011 123    32    17    3.8      0  0.369     93     66      0     93    159    159      0     0.0  0.000      0      0  0.000  0.000  0.000  0.000  0.000  0.000  0.000    3.50   0.00   0.00      0      0  395.9   0.16   0.14    0.0   0.53    0.31    0.31    0.27    0.08    0.02    0.00    0.00    0.00    0.00    0.00        5      20
 2011 124    33    18    4.1      0  0.423    105     80      0     96    185    185      0     0.0  0.000      0      0  0.000  0.000  0.000  0.000  0.000  0.000  0.000    3.50   0.00   0.00      0      0  403.4   0.17   0.16    0.0   0.55    0.32    0.32    0.27    0.09    0.02    0.00    0.00    0.00    0.00    0.00        7      22
 2011 125    34    19    4.4      0  0.498    122     94      0     98    215    215      0     0.0  0.000      0      0  0.000  0.000  0.000  0.000  0.000  0.000  0.000    3.51   0.00   0.00      0      0  409.2   0.19   0.18    0.0   0.56    0.33    0.33    0.27    0.09    0.03    0.00    0.00    0.00    0.00    0.00        8      24
 2011 126    35    20    4.7      0  0.619    150    103      0     99    252    252      0     0.0  0.000      0      0  0.000  0.000  0.000  0.000  0.000  0.000  0.000    3.54   0.00   0.00      0      0  413.4   0.20   0.20    0.0   0.58    0.33    0.33    0.27    0.09    0.03    0.00    0.00    0.00    0.00    0.00        9      27
 2011 127    36    21    5.0      0  0.758    180    116      0    101    296    296      0     0.0  0.000      0      0  0.000  0.000  0.000  0.000  0.000  0.000  0.000    3.55   0.00   0.00      0      0  422.0   0.22   0.23    0.0   0.60    0.33    0.33    0.28    0.10    0.03    0.00    0.00    0.00    0.00    0.00       11      29
 2011 128    37    22    5.3      0  0.902    212    135      0    105    346    346      0     0.0  0.000      0      0  0.000  0.000  0.000  0.000  0.000  0.000  0.000    3.56   0.00   0.00      0      0  426.1   0.24   0.25    0.0   0.62    0.34    0.34    0.28    0.10    0.04    0.01    0.00    0.00    0.00    0.00       13      31
 2011 129    38    23    5.6      0  1.067    249    157      0    109    406    406      0     0.0  0.000      0      0  0.000  0.000  0.000  0.000  0.000  0.000  0.000    3.57   0.00   0.00      0      0  429.0   0.26   0.27    0.0   0.64    0.35    0.35    0.29    0.11    0.04    0.01    0.00    0.00    0.00    0.00       15      33
 2011 130    39    24    5.9      0  1.245    291    183      0    115    474    474      0     0.0  0.000      0      0  0.000  0.000  0.000  0.000  0.000  0.000  0.000    3.57   0.00   0.00      0      0  428.1   0.29   0.29    0.0   0.66    0.36    0.36    0.30    0.12    0.05    0.01    0.00    0.00    0.00    0.00       18      36
 2011 131    40    25    6.2      0  1.464    337    213      0    121    550    550      0     0.0  0.000      0      0  0.000  0.000  0.000  0.000  0.000  0.000  0.000    3.57   0.00   0.00      0      0  434.1   0.32   0.32    0.0   0.68    0.38    0.38    0.31    0.13    0.06    0.02    0.00    0.00    0.00    0.00       22      38
 2011 132    41    26    6.5      0  1.682    384    246      0    129    631    631      0     0.0  0.000      0      0  0.000  0.000  0.000  0.000  0.000  0.000  0.000    3.61   0.00   0.00      0      0  437.6   0.35   0.34    0.0   0.69    0.40    0.40    0.32    0.14    0.06    0.02    0.00    0.00    0.00    0.00       33      41
 2011 133    42    27    6.8      0  1.892    429    283      0    138    712    712      0     0.0  0.000      0      0  0.000  0.000  0.000  0.000  0.000  0.000  0.000    3.67   0.00   0.00      0      0  441.2   0.38   0.36    0.0   0.71    0.42    0.42    0.34    0.15    0.07    0.03    0.00    0.00    0.00    0.00       51      44
 2011 134    43    28    7.1      0  2.108    471    321      0    146    792    792      0     0.0  0.000      0      0  0.000  0.000  0.000  0.000  0.000  0.000  0.000    3.72   0.00   0.00      0      0  448.0   0.41   0.39    0.0   0.73    0.44    0.44    0.35    0.16    0.08    0.03    0.01    0.00    0.00    0.00       72      46
 2011 135    44    29    7.4      0  2.313    517    368      0    157    885    885      0     0.0  0.000      0      0  0.000  0.000  0.000  0.000  0.000  0.000  0.000    3.78   0.00   0.00      0      0  447.6   0.43   0.40    0.0   0.74    0.46    0.46    0.37    0.17    0.09    0.04    0.01    0.00    0.00    0.00       98      49
 2011 136    45    30    7.7      1  2.512    562    420      0    168    981    981      0     0.0  0.000      0      0  0.000  0.000  0.000  0.000  0.000  0.000  0.000    3.84   0.00   0.00      0      0  447.2   0.46   0.43    0.0   0.76    0.49    0.49    0.39    0.19    0.10    0.05    0.01    0.00    0.00    0.00      129      53
 2011 137    46    31    8.0      1  2.682    606    477      0    180   1083   1083      0     0.0  0.000      0      0  0.000  0.000  0.000  0.000  0.000  0.000  0.000    3.90   0.00   0.00      0      0  442.5   0.49   0.45    0.0   0.78    0.51    0.51    0.41    0.20    0.11    0.05    0.02    0.00    0.00    0.00      166      56
 2011 138    47    32    8.3      1  2.881    665    544      0    193   1210   1210      0     0.0  0.000      0      0  0.000  0.000  0.000  0.000  0.000  0.000  0.000    3.91   0.00   0.00      0      0  433.2   0.52   0.47    0.0   0.79    0.54    0.54    0.43    0.22    0.12    0.06    0.02    0.00    0.00    0.00      187      60
 2011 139    48    33    8.6      3  3.084    724    617      0    206   1341   1341      0     0.0  0.000      0      0  0.000  0.000  0.000  0.000  0.000  0.000  0.000    3.91   0.00   0.00      0      0  425.7   0.55   0.48    0.0   0.81    0.57    0.57    0.45    0.23    0.13    0.07    0.03    0.00    0.00    0.00      209      64
 2011 140    49    34    8.9      3  3.252    785    695      0    219   1480   1484      0     0.0  0.000      4      5  0.000  0.000  0.000  0.000  0.000  0.000  0.000    3.91   0.00   0.00      0      4  414.3   0.58   0.50    0.0   0.82    0.60    0.60    0.47    0.25    0.15    0.07    0.03    0.00    0.00    0.00      232      68
 2011 141    50    35    9.2      3  3.395    839    771      0    231   1610   1630      0     0.0  0.000     20     19  0.000  0.000  0.000  0.000  0.000  0.000  0.000    3.90   0.00   0.01      0     20  404.7   0.61   0.52    0.0   0.84    0.63    0.63    0.49    0.26    0.16    0.08    0.04    0.00    0.00    0.00      255      73
 2011 142    51    36    9.4      3  3.517    888    846      0    242   1734   1781      0     0.0  0.000     48     33  0.000  0.000  0.000  0.000  0.000  0.000  0.000    3.90   0.00   0.03      0     48  396.0   0.64   0.54    0.0   0.86    0.65    0.65    0.51    0.28    0.17    0.09    0.04    0.00    0.00    0.00      278      78
 2011 143    52    37    9.7      3  3.612    935    921      0    252   1856   1942      0     0.0  0.000     87     48  0.000  0.000  0.000  0.000  0.000  0.000  0.000    3.88   0.00   0.04      0     87  386.3   0.68   0.55    0.0   0.87    0.68    0.68    0.53    0.29    0.18    0.09    0.05    0.00    0.00    0.00      299      83
 2011 144    53    38   10.0      3  3.684    977    994      0    262   1972   2109      0     0.0  0.000    137     63  0.000  0.000  0.000  0.000  0.000  0.000  0.000    3.87   0.00   0.07      0    137  376.9   0.71   0.57    0.0   0.89    0.70    0.70    0.54    0.30    0.18    0.10    0.05    0.01    0.00    0.00      319      88
 2011 145    54    39   10.3      3  3.735   1011   1060      0    269   2071   2272      0     0.0  0.000    201     78  0.000  0.000  0.000  0.000  0.000  0.000  0.000    3.85   0.00   0.09      0    201  369.3   0.75   0.58    0.0   0.91    0.71    0.71    0.55    0.31    0.19    0.10    0.06    0.01    0.00    0.00      339      94
 2011 146    55    40   10.7      5  3.772   1043   1124      0    275   2167   2443      0     0.0  0.000    277     93  0.000  0.000  0.000  0.000  0.000  0.000  0.000    3.82   0.00   0.11      0    277  361.7   0.78   0.59    0.0   0.92    0.72    0.72    0.56    0.32    0.20    0.10    0.06    0.01    0.00    0.00      355     100
 2011 147    56    41   11.0      5  3.791   1068   1181      0    279   2249   2612     17     0.0  0.000    363    109  0.000  0.000  0.000  0.000  0.000  0.000  0.000    3.79   0.00   0.14      0    363  354.8   0.82   0.60    0.0   0.94    0.73    0.73    0.57    0.32    0.20    0.11    0.06    0.01    0.00    0.00      373     106
 2011 148    57    42   11.3      5  3.792   1087   1228      7    282   2315   2777     61    11.0  0.002    462    124  0.000  0.000  0.000  0.000  0.000  0.000  0.000    3.77   1.46   0.17      0    462  348.9   0.86   0.60    0.0   0.96    0.74    0.74    0.57    0.33    0.20    0.11    0.06    0.01    0.00    0.00      392     112
 2011 149    58    43   11.3      5  3.770   1095   1263     30    283   2358   2938    108    28.1  0.010    580    140  0.000  0.000  0.000  0.000  0.000  0.000  0.000    3.74   5.22   0.20      0    580  344.3   0.90   0.60    0.0   0.97    0.74    0.74    0.57    0.33    0.21    0.11    0.06    0.01    0.00    0.00      413     118
 2011 150    59    44   11.3      5  3.735   1097   1290     71    282   2387   3097    206    34.7  0.023    710    154  0.000  0.000  0.000  0.000  0.000  0.000  0.000    3.72  10.05   0.23      0    710  340.5   0.93   0.60    0.0   0.99    0.73    0.73    0.57    0.33    0.21    0.11    0.06    0.01    0.00    0.00      440     124
 2011 151    60    45   11.3      5  3.672   1082   1290    149    278   2372   3254    255    58.6  0.046    882    170  0.000  0.000  0.000  0.000  0.000  0.000  0.000    3.68  16.95   0.27      0    882  339.4   0.97   0.60    0.0   1.00    0.72    0.72    0.56    0.32    0.20    0.11    0.06    0.01    0.00    0.00      463     130
 2011 152    61    46   11.3      5  3.591   1055   1272    249    271   2327   3395    307    81.2  0.073   1068    185  0.000  0.000  0.000  0.000  0.000  0.000  0.000    3.62  23.33   0.31      0   1068  340.5   0.97   0.60    0.0   1.00    0.71    0.71    0.55    0.31    0.20    0.11    0.06    0.01    0.00    0.00      487     136
 2011 153    62    47   11.3      5  3.511   1028   1255    371    265   2283   3526    307   120.9  0.105   1243    200  0.000  0.000  0.000  0.000  0.000  0.000  0.000    3.56  29.85   0.35      0   1243  341.6   0.97   0.60    0.0   1.00    0.69    0.69    0.54    0.31    0.19    0.10    0.06    0.01    0.00    0.00      507     141
 2011 154    63    48   11.3      5  3.424    999   1237    492    259   2236   3666    360   136.8  0.134   1430    213  0.000  0.000  0.000  0.000  0.000  0.000  0.000    3.50  34.40   0.39      0   1430  342.7   0.97   0.60    0.0   1.00    0.68    0.68    0.52    0.30    0.19    0.10    0.06    0.01    0.00    0.00      532     147
 2011 155    64    49   11.3      5  3.334    970   1218    634    253   2188   3797    413   153.4  0.167   1609    225  0.000  0.000  0.000  0.000  0.000  0.000  0.000    3.42  39.43   0.42      0   1609  343.9   0.97   0.60    0.0   1.00    0.67    0.67    0.51    0.30    0.19    0.10    0.06    0.01    0.00    0.00      557     152
 2011 156    65    50   11.3      5  3.236    938   1200    791    248   2138   3946    469   168.5  0.200   1807    233  0.000  0.000  0.000  0.000  0.000  0.000  0.000    3.34  43.77   0.46      0   1807  344.9   0.97   0.60    0.0   1.02    0.65    0.65    0.50    0.29    0.18    0.10    0.06    0.01    0.00    0.00      584     158
 2011 157    66    51   11.3      5  3.132    906   1184    966    242   2090   4094    524   184.2  0.236   2004    238  0.000  0.000  0.000  0.000  0.000  0.000  0.000    3.24  48.22   0.49      0   2004  345.5   0.97   0.60    0.0   1.04    0.64    0.64    0.49    0.28    0.18    0.09    0.06    0.01    0.00    0.00      613     163
 2011 158    67    52   11.3      7  3.028    873   1164   1165    236   2038   4239    576   202.2  0.275   2201    240  0.000  0.000  0.000  0.000  0.000  0.000  0.000    3.14  52.94   0.52      0   2201  346.7   0.97   0.60    0.0   1.05    0.62    0.62    0.48    0.28    0.18    0.09    0.06    0.01    0.00    0.00      646     168
 2011 159    68    53   11.3      7  2.235    644   1091   1379    231   1735   4116    602   229.3  0.335   2381    232  0.000  0.000  0.000  0.000  0.000  0.000  0.000    2.94  57.91   0.58      0   2381  347.3   0.97   0.60    0.0   1.05    0.61    0.61    0.47    0.27    0.17    0.09    0.05    0.01    0.00    0.00      953     173
 2011 160    69    54   11.3      7  1.652    475   1038   1553    225   1513   4056    603   257.4  0.383   2543    217  0.000  0.000  0.000  0.000  0.000  0.000  0.000    2.75  61.06   0.63      0   2543  347.6   0.97   0.60    0.0   1.05    0.60    0.60    0.46    0.27    0.17    0.09    0.05    0.01    0.00    0.00     1165     178
 2011 161    70    55   11.3      7  1.223    352   1001   1688    220   1353   4023    603   279.7  0.419   2670    190  0.000  0.000  0.000  0.000  0.000  0.000  0.000    2.57  63.20   0.66      0   2670  347.2   0.97   0.60    0.0   1.05    0.58    0.58    0.45    0.26    0.16    0.09    0.05    0.01    0.00    0.00     1319     183
 2011 162    71    56   11.3      7  0.906    261    971   1795    215   1232   4002    603   297.6  0.449   2770    182  0.000  0.000  0.000  0.000  0.000  0.000  0.000    2.41  64.81   0.69      0   2770  347.6   0.97   0.60    0.0   1.05    0.57    0.57    0.44    0.25    0.16    0.09    0.05    0.01    0.00    0.00     1434     188
 2011 163    72    57   11.3      7  0.673    193    947   1876    210   1141   3984    603   311.0  0.471   2844    176  0.000  0.000  0.000  0.000  0.000  0.000  0.000    2.28  65.98   0.71      0   2844  348.0   0.97   0.60    0.0   1.05    0.56    0.56    0.43    0.25    0.16    0.08    0.05    0.01    0.00    0.00     1518     193
 2011 164    73    58   11.3      7  0.500    143    927   1938    205   1070   3968    603   321.2  0.488   2898    173  0.000  0.000  0.000  0.000  0.000  0.000  0.000    2.15  66.87   0.73      0   2898  349.2   0.97   0.60    0.0   1.05    0.55    0.55    0.42    0.24    0.15    0.08    0.05    0.01    0.00    0.00     1581     197
 2011 165    74    59   11.3      7  0.372    106    909   1983    200   1015   3950    603   328.7  0.502   2935    172  0.000  0.000  0.000  0.000  0.000  0.000  0.000    2.04  67.56   0.74      0   2935  350.7   0.97   0.60    0.0   1.05    0.54    0.54    0.41    0.24    0.15    0.08    0.05    0.01    0.00    0.00     1628     202
 2011 166    75    60   11.3      7  0.277     79    894   2014    196    973   3933    603   333.9  0.512   2960    172  0.000  0.000  0.000  0.000  0.000  0.000  0.000    1.96  68.04   0.75      0   2960  352.3   0.97   0.60    0.0   1.07    0.52    0.52    0.40    0.23    0.15    0.08    0.05    0.01    0.00    0.00     1662     206
 2011 167    76    61   11.3      8  0.207     59    883   2032    191    941   3915    603   336.9  0.519   2974    172  0.000  0.000  0.000  0.000  0.000  0.000  0.000    1.91  68.34   0.76      0   2974  353.7   0.97   0.60    0.0   1.07    0.51    0.51    0.40    0.23    0.14    0.08    0.05    0.01    0.00    0.00     1688     210
