*SIMULATION OVERVIEW FILE

*DSSAT Cropping System Model Ver. 4.6.1.000 -release      JUL 11, 2017; 16:24:41
                                                                                
*RUN   1        : SIM                       CRGRO046 0\000000    1              
 MODEL          : CRGRO046 - Dry bean                                           
 EXPERIMENT     : 0\000000 BN PALMIRA_ANALISIS SENSIBILIDAD                     
 DATA PATH      : D:\B\0\00000                                                  
 TREATMENT  1   : SIM                       CRGRO046                            
                                                                                
                                                                                
 CROP           : Dry bean         CULTIVAR : Jatu Rong        ECOTYPE :ANDIND  
 STARTING DATE  : APR  1 1980                                                   
 PLANTING DATE  : AUTOMATIC PLANTING PLANTS/m2 : 26.6     ROW SPACING :  60.cm  
 WEATHER        : PALM   1980                                                   
 SOIL           : CCPA000030     TEXTURE : C     -   Silty Clay Loam            
 WATER BALANCE  : NOT SIMULATED ; NO H2O-STRESS                                 
 IRRIGATION     :                                                               
 NITROGEN BAL.  : NOT SIMULATED ; NO N-STRESS                                   
 N-FERTILIZER   :                                                               
 RESIDUE/MANURE :                                                               
 ENVIRONM. OPT. : DAYL=    0.00  SRAD=    0.00  TMAX=    0.00  TMIN=    0.00    
                  RAIN=    0.00  CO2 =    0.00  DEW =    0.00  WIND=    0.00    
 SIMULATION OPT : WATER   :N  NITROGEN:N  N-FIX:N  PHOSPH :N  PESTS  :N         
                  PHOTO   :L  ET      :R  INFIL:S  HYDROL :R  SOM    :G         
                  CO2 338ppm  NSWIT   :1  EVAP :S  SOIL   :2  STEMP  :D         
 MANAGEMENT OPT : PLANTING:A  IRRIG   :A  FERT :D  RESIDUE:N  HARVEST:M         
                  WEATHER :M  TILLAGE :N                                        
                                                                                
*SUMMARY OF SOIL AND GENETIC INPUT PARAMETERS                                   
                                                                                
 Dry bean   CULTIVAR :000000-Jatu Rong          ECOTYPE :ANDIND                 
 CSDVAR :12.17  PPSEN  : 0.05  EMG-FLW:17.00  FLW-FSD: 9.00  FSD-PHM : 11.00    
 WTPSD  :0.600  SDPDVR : 3.50  SDFDUR :15.00  PODDUR :10.00  XFRUIT  :  1.00    
 THRESH : 78.0  SDPRO  :0.235  SDLIP   : 0.030                                  


*SIMULATED CROP AND SOIL STATUS AT MAIN DEVELOPMENT STAGES

 RUN NO.     1     SIM                     

        CROP GROWTH     BIOMASS         LEAF   CROP N     STRESS      STRESS                                           
   DATE  AGE STAGE        kg/ha    LAI   NUM  kg/ha  %   H2O  Nitr Phos1 Phos2  RSTG                                   
 ------  --- ----------   -----  -----  ----  ---  ---  ----  ----  ----  ----  ----                                   
  1 APR    0 Start Sim        0   0.00   0.0    0  0.0  0.00  0.00  0.00  0.00     0
 15 APR    0 Sowing           0   0.00   0.0    0  0.0  0.00  0.00  0.00  0.00     0
 20 APR    5 Emergence       44   0.08   0.2    1  3.4  0.00  0.00  0.00  0.00     0
 20 APR    5 End Juven.      44   0.08   0.2    1  3.4  0.00  0.00  0.00  0.00     0
 23 APR    8 Unifoliate      49   0.09   1.1    2  3.3  0.00  0.64  0.00  0.00     0
 25 APR   10 Flower Ind      56   0.10   1.7    2  3.2  0.00  0.41  0.00  0.00     0
  8 MAY   23 First Flwr     381   1.01   5.6   12  3.1  0.00  0.02  0.00  0.00     1
 11 MAY   26 First Pod      586   1.43   6.5   18  3.0  0.00  0.00  0.00  0.00     3
 18 MAY   33 First Seed    1152   1.78   8.5   35  3.1  0.00  0.00  0.00  0.00     5
 20 MAY   35 End Msnode    1365   1.81   9.1   41  3.0  0.00  0.00  0.00  0.00     5
 24 MAY   39 End Pod       1769   1.72   9.1   53  3.0  0.00  0.00  0.00  0.00     5
 27 MAY   42 End Leaf      2057   1.59   9.1   60  2.9  0.00  0.00  0.00  0.00     5
 30 MAY   45 Phys. Mat     2326   1.43   9.1   67  2.9  0.00  0.00  0.00  0.00     7
  8 JUN   54 Harv. Mat     2155   0.10   9.1   61  2.8  0.00  0.00  0.00  0.00     8
  8 JUN   54 Harvest       2155   0.10   9.1   61  2.8  0.00  0.00  0.00  0.00     8


*MAIN GROWTH AND DEVELOPMENT VARIABLES

@     VARIABLE                                         SIMULATED     MEASURED
      --------                                         ---------     --------
      Anthesis day (dap)                                      23          -99
      First pod day (dap)                                     26          -99
      First seed day (dap)                                    33          -99
      Physiological maturity day (dap)                        45          -99
      Yield at harvest maturity (kg [dm]/ha)                1159          -99
      Pod/Ear/Panicle weight at maturity (kg [dm]/ha)       1732          -99
      Number at maturity (no/m2)                             372          -99
      Unit wt at maturity (g [dm]/unit)                   0.3117          -99
      Number at maturity (no/unit)                          3.50          -99
      Tops weight at maturity (kg [dm]/ha)                  2155          -99
      By-product produced (stalk) at maturity (kg[dm]/ha    1000          -99
      Leaf area index, maximum                              1.81          -99
      Harvest index at maturity                            0.538          -99
      Threshing % at maturity                              66.91          -99
      Grain N at maturity (kg/ha)                             44          -99
      Tops N at maturity (kg/ha)                              61          -99
      Stem N at maturity (kg/ha)                               5          -99
      Grain N at maturity (%)                               3.78          -99
      Tops weight at anthesis (kg [dm]/ha)                   381          -99
      Tops N at anthesis (kg/ha)                              12          -99
      Leaf number per stem at maturity                      9.14          -99
      Grain oil at maturity (%)                             2.87          -99
      Canopy height (m)                                     0.71          -99
      Harvest maturity day (dap)                              54          -99
      Emergence day (dap)                                      5          -99


*ENVIRONMENTAL AND STRESS FACTORS

 |-----Development Phase------|--------------------------------------Environment--------------------------------------|-----------------Stress-----------------|
                              |---------------Average--------------|-----Cumulative-----|--------Count of days--------|          (0=Min, 1=Max Stress)         |
                         Time  Temp  Temp  Temp Solar Photop                Evapo    Pot TMIN TMIN TMAX TMAX TMAX RAIN|----Water----|---Nitrogen--|-Phosphorus-|
                         Span   Max   Min  Mean   Rad  [day]    CO2   Rain  Trans     ET   <    <    >    >    >    >   Photo         Photo         Photo
                         days    øC    øC    øC MJ/m2     hr    ppm     mm     mm     mm  0øC  2øC 30øC 32øC 34øC  0mm  synth Growth  synth Growth  synth Growth
----------------------------------------------------------------------------------------------------------------------------------------------------------------
 Emergence -First Flower   18  29.8  19.4  24.6  18.9  12.12  338.3   36.8    0.0    0.0    0    0    9    1    0    9  0.000  0.000  0.000  0.164  0.000  0.000
 First Flower-First Seed   10  29.5  19.5  24.5  18.0  12.16  338.4   20.5    0.0    0.0    0    0    5    1    0    5  0.000  0.000  0.000  0.000  0.000  0.000
 First Seed - Phys. Mat.   12  29.9  19.8  24.9  18.1  12.18  338.5   32.8    0.0    0.0    0    0    6    0    0    4  0.000  0.000  0.000  0.000  0.000  0.000
 Emergence  - Phys. Mat.   40  29.8  19.5  24.7  18.4  12.15  338.4   90.1    0.0    0.0    0    0   20    2    0   18  0.000  0.000  0.000  0.074  0.000  0.000


 Planting to Harvest       68  29.7  19.3  24.5  18.7  12.13  338.4  134.7    0.0    0.0    0    0   35    2    0   25  0.000  0.000  0.000  0.043  0.000  0.000
----------------------------------------------------------------------------------------------------------------------------------------------------------------

--------------------------------------------------------------------------------------------------------------

                  Dry bean YIELD :     1159 kg/ha    [Dry weight] 

**************************************************************************************************************

*DSSAT Cropping System Model Ver. 4.6.1.000 -release      JUL 11, 2017; 16:24:41
                                                                                
*RUN   2        : SIM                       CRGRO046 0\000000    1              
 MODEL          : CRGRO046 - Dry bean                                           
 EXPERIMENT     : 0\000000 BN PALMIRA_ANALISIS SENSIBILIDAD                     
 DATA PATH      : D:\B\0\00000                                                  
 TREATMENT  1   : SIM                       CRGRO046                            
                                                                                
                                                                                
 CROP           : Dry bean         CULTIVAR : Jatu Rong        ECOTYPE :ANDIND  
 STARTING DATE  : APR  2 1981                                                   
 PLANTING DATE  : APR 16 1981        PLANTS/m2 : 26.6     ROW SPACING :  60.cm  
 WEATHER        : PALM8034                                                      
 SOIL           : CCPA000030     TEXTURE : C     -   Silty Clay Loam            
 WATER BALANCE  : NOT SIMULATED ; NO H2O-STRESS                                 
 IRRIGATION     :                                                               
 NITROGEN BAL.  : NOT SIMULATED ; NO N-STRESS                                   
 N-FERTILIZER   :                                                               
 RESIDUE/MANURE :                                                               
 ENVIRONM. OPT. : DAYL=    0.00  SRAD=    0.00  TMAX=    0.00  TMIN=    0.00    
                  RAIN=    0.00  CO2 =    0.00  DEW =    0.00  WIND=    0.00    
 SIMULATION OPT : WATER   :N  NITROGEN:N  N-FIX:N  PHOSPH :N  PESTS  :N         
                  PHOTO   :L  ET      :R  INFIL:S  HYDROL :R  SOM    :G         
                  CO2 340ppm  NSWIT   :1  EVAP :S  SOIL   :2  STEMP  :D         
 MANAGEMENT OPT : PLANTING:A  IRRIG   :A  FERT :D  RESIDUE:N  HARVEST:M         
                  WEATHER :M  TILLAGE :N                                        
                                                                                
*SUMMARY OF SOIL AND GENETIC INPUT PARAMETERS                                   
                                                                                
 Dry bean   CULTIVAR :000000-Jatu Rong          ECOTYPE :ANDIND                 
 CSDVAR :12.17  PPSEN  : 0.05  EMG-FLW:17.00  FLW-FSD: 9.00  FSD-PHM : 11.00    
 WTPSD  :0.600  SDPDVR : 3.50  SDFDUR :15.00  PODDUR :10.00  XFRUIT  :  1.00    
 THRESH : 78.0  SDPRO  :0.235  SDLIP   : 0.030                                  


*SIMULATED CROP AND SOIL STATUS AT MAIN DEVELOPMENT STAGES

 RUN NO.     2     SIM                     

        CROP GROWTH     BIOMASS         LEAF   CROP N     STRESS      STRESS                                           
   DATE  AGE STAGE        kg/ha    LAI   NUM  kg/ha  %   H2O  Nitr Phos1 Phos2  RSTG                                   
 ------  --- ----------   -----  -----  ----  ---  ---  ----  ----  ----  ----  ----                                   
  2 APR    0 Start Sim        0   0.00   0.0    0  0.0  0.00  0.00  0.00  0.00     0
 16 APR    0 Sowing           0   0.00   0.0    0  0.0  0.00  0.00  0.00  0.00     0
 21 APR    5 Emergence       44   0.08   0.2    1  3.4  0.00  0.00  0.00  0.00     0
 21 APR    5 End Juven.      44   0.08   0.2    1  3.4  0.00  0.00  0.00  0.00     0
 24 APR    8 Unifoliate      48   0.09   1.1    2  3.3  0.00  0.66  0.00  0.00     0
 26 APR   10 Flower Ind      54   0.10   1.7    2  3.2  0.00  0.47  0.00  0.00     0
  9 MAY   23 First Flwr     336   0.89   5.3   10  3.0  0.00  0.02  0.00  0.00     1
 12 MAY   26 First Pod      520   1.32   6.2   16  3.0  0.00  0.00  0.00  0.00     3
 19 MAY   33 First Seed    1062   1.70   8.2   33  3.1  0.00  0.00  0.00  0.00     5
 21 MAY   35 End Msnode    1264   1.73   8.8   39  3.1  0.00  0.00  0.00  0.00     5
 26 MAY   40 End Pod       1750   1.64   8.8   53  3.0  0.00  0.00  0.00  0.00     5
 29 MAY   43 End Leaf      2023   1.51   8.8   60  3.0  0.00  0.00  0.00  0.00     5
  1 JUN   46 Phys. Mat     2288   1.37   8.8   66  2.9  0.00  0.00  0.00  0.00     7
 10 JUN   55 Harv. Mat     2134   0.09   8.8   61  2.9  0.00  0.00  0.00  0.00     8
 10 JUN   55 Harvest       2134   0.09   8.8   61  2.9  0.00  0.00  0.00  0.00     8


*MAIN GROWTH AND DEVELOPMENT VARIABLES

@     VARIABLE                                         SIMULATED     MEASURED
      --------                                         ---------     --------
      Anthesis day (dap)                                      23          -99
      First pod day (dap)                                     26          -99
      First seed day (dap)                                    33          -99
      Physiological maturity day (dap)                        46          -99
      Yield at harvest maturity (kg [dm]/ha)                1164          -99
      Pod/Ear/Panicle weight at maturity (kg [dm]/ha)       1755          -99
      Number at maturity (no/m2)                             376          -99
      Unit wt at maturity (g [dm]/unit)                   0.3099          -99
      Number at maturity (no/unit)                          3.50          -99
      Tops weight at maturity (kg [dm]/ha)                  2134          -99
      By-product produced (stalk) at maturity (kg[dm]/ha     970          -99
      Leaf area index, maximum                              1.74          -99
      Harvest index at maturity                            0.546          -99
      Threshing % at maturity                              66.33          -99
      Grain N at maturity (kg/ha)                             44          -99
      Tops N at maturity (kg/ha)                              61          -99
      Stem N at maturity (kg/ha)                               4          -99
      Grain N at maturity (%)                               3.77          -99
      Tops weight at anthesis (kg [dm]/ha)                   336          -99
      Tops N at anthesis (kg/ha)                              10          -99
      Leaf number per stem at maturity                      8.83          -99
      Grain oil at maturity (%)                             2.88          -99
      Canopy height (m)                                     0.66          -99
      Harvest maturity day (dap)                              55          -99
      Emergence day (dap)                                      5          -99


*ENVIRONMENTAL AND STRESS FACTORS

 |-----Development Phase------|--------------------------------------Environment--------------------------------------|-----------------Stress-----------------|
                              |---------------Average--------------|-----Cumulative-----|--------Count of days--------|          (0=Min, 1=Max Stress)         |
                         Time  Temp  Temp  Temp Solar Photop                Evapo    Pot TMIN TMIN TMAX TMAX TMAX RAIN|----Water----|---Nitrogen--|-Phosphorus-|
                         Span   Max   Min  Mean   Rad  [day]    CO2   Rain  Trans     ET   <    <    >    >    >    >   Photo         Photo         Photo
                         days    øC    øC    øC MJ/m2     hr    ppm     mm     mm     mm  0øC  2øC 30øC 32øC 34øC  0mm  synth Growth  synth Growth  synth Growth
----------------------------------------------------------------------------------------------------------------------------------------------------------------
 Emergence -First Flower   18  27.8  18.8  23.3  17.5  12.12  339.7   92.9    0.0    0.0    0    0    0    0    0   14  0.000  0.000  0.000  0.178  0.000  0.000
 First Flower-First Seed   10  28.8  19.2  24.0  17.9  12.16  339.8   20.1    0.0    0.0    0    0    2    0    0    5  0.000  0.000  0.000  0.000  0.000  0.000
 First Seed - Phys. Mat.   13  28.7  19.2  24.0  17.5  12.18  339.8   98.0    0.0    0.0    0    0    3    0    0    9  0.000  0.000  0.000  0.000  0.000  0.000
 Emergence  - Phys. Mat.   41  28.4  19.0  23.7  17.6  12.15  339.8  211.0    0.0    0.0    0    0    5    0    0   28  0.000  0.000  0.000  0.078  0.000  0.000


 Planting to Harvest       69  28.6  19.1  23.9  17.8  12.13  339.7  373.3    0.0    0.0    0    0   14    0    0   42  0.000  0.000  0.000  0.046  0.000  0.000
----------------------------------------------------------------------------------------------------------------------------------------------------------------

--------------------------------------------------------------------------------------------------------------

                  Dry bean YIELD :     1164 kg/ha    [Dry weight] 

**************************************************************************************************************

*DSSAT Cropping System Model Ver. 4.6.1.000 -release      JUL 11, 2017; 16:24:41
                                                                                
*RUN   3        : SIM                       CRGRO046 0\000000    1              
 MODEL          : CRGRO046 - Dry bean                                           
 EXPERIMENT     : 0\000000 BN PALMIRA_ANALISIS SENSIBILIDAD                     
 DATA PATH      : D:\B\0\00000                                                  
 TREATMENT  1   : SIM                       CRGRO046                            
                                                                                
                                                                                
 CROP           : Dry bean         CULTIVAR : Jatu Rong        ECOTYPE :ANDIND  
 STARTING DATE  : APR  2 1982                                                   
 PLANTING DATE  : APR 16 1982        PLANTS/m2 : 26.6     ROW SPACING :  60.cm  
 WEATHER        : PALM8034                                                      
 SOIL           : CCPA000030     TEXTURE : C     -   Silty Clay Loam            
 WATER BALANCE  : NOT SIMULATED ; NO H2O-STRESS                                 
 IRRIGATION     :                                                               
 NITROGEN BAL.  : NOT SIMULATED ; NO N-STRESS                                   
 N-FERTILIZER   :                                                               
 RESIDUE/MANURE :                                                               
 ENVIRONM. OPT. : DAYL=    0.00  SRAD=    0.00  TMAX=    0.00  TMIN=    0.00    
                  RAIN=    0.00  CO2 =    0.00  DEW =    0.00  WIND=    0.00    
 SIMULATION OPT : WATER   :N  NITROGEN:N  N-FIX:N  PHOSPH :N  PESTS  :N         
                  PHOTO   :L  ET      :R  INFIL:S  HYDROL :R  SOM    :G         
                  CO2 341ppm  NSWIT   :1  EVAP :S  SOIL   :2  STEMP  :D         
 MANAGEMENT OPT : PLANTING:A  IRRIG   :A  FERT :D  RESIDUE:N  HARVEST:M         
                  WEATHER :M  TILLAGE :N                                        
                                                                                
*SUMMARY OF SOIL AND GENETIC INPUT PARAMETERS                                   
                                                                                
 Dry bean   CULTIVAR :000000-Jatu Rong          ECOTYPE :ANDIND                 
 CSDVAR :12.17  PPSEN  : 0.05  EMG-FLW:17.00  FLW-FSD: 9.00  FSD-PHM : 11.00    
 WTPSD  :0.600  SDPDVR : 3.50  SDFDUR :15.00  PODDUR :10.00  XFRUIT  :  1.00    
 THRESH : 78.0  SDPRO  :0.235  SDLIP   : 0.030                                  


*SIMULATED CROP AND SOIL STATUS AT MAIN DEVELOPMENT STAGES

 RUN NO.     3     SIM                     

        CROP GROWTH     BIOMASS         LEAF   CROP N     STRESS      STRESS                                           
   DATE  AGE STAGE        kg/ha    LAI   NUM  kg/ha  %   H2O  Nitr Phos1 Phos2  RSTG                                   
 ------  --- ----------   -----  -----  ----  ---  ---  ----  ----  ----  ----  ----                                   
  2 APR    0 Start Sim        0   0.00   0.0    0  0.0  0.00  0.00  0.00  0.00     0
 16 APR    0 Sowing           0   0.00   0.0    0  0.0  0.00  0.00  0.00  0.00     0
 21 APR    5 Emergence       44   0.08   0.2    1  3.4  0.00  0.00  0.00  0.00     0
 21 APR    5 End Juven.      44   0.08   0.2    1  3.4  0.00  0.00  0.00  0.00     0
 24 APR    8 Unifoliate      49   0.09   1.1    2  3.3  0.00  0.65  0.00  0.00     0
 26 APR   10 Flower Ind      55   0.10   1.7    2  3.2  0.00  0.44  0.00  0.00     0
  9 MAY   23 First Flwr     361   0.97   5.5   11  3.0  0.00  0.01  0.00  0.00     1
 12 MAY   26 First Pod      559   1.40   6.4   17  3.0  0.00  0.00  0.00  0.00     3
 19 MAY   33 First Seed    1128   1.75   8.5   35  3.1  0.00  0.00  0.00  0.00     5
 21 MAY   35 End Msnode    1314   1.77   9.1   40  3.0  0.00  0.00  0.00  0.00     5
 26 MAY   40 End Pod       1796   1.66   9.1   54  3.0  0.00  0.00  0.00  0.00     5
 29 MAY   43 End Leaf      2067   1.52   9.1   61  2.9  0.00  0.00  0.00  0.00     5
 31 MAY   45 Phys. Mat     2250   1.42   9.1   65  2.9  0.00  0.00  0.00  0.00     7
  9 JUN   54 Harv. Mat     2094   0.10   9.1   59  2.8  0.00  0.00  0.00  0.00     8
  9 JUN   54 Harvest       2094   0.10   9.1   59  2.8  0.00  0.00  0.00  0.00     8


*MAIN GROWTH AND DEVELOPMENT VARIABLES

@     VARIABLE                                         SIMULATED     MEASURED
      --------                                         ---------     --------
      Anthesis day (dap)                                      23          -99
      First pod day (dap)                                     26          -99
      First seed day (dap)                                    33          -99
      Physiological maturity day (dap)                        45          -99
      Yield at harvest maturity (kg [dm]/ha)                1094          -99
      Pod/Ear/Panicle weight at maturity (kg [dm]/ha)       1702          -99
      Number at maturity (no/m2)                             377          -99
      Unit wt at maturity (g [dm]/unit)                   0.2903          -99
      Number at maturity (no/unit)                          3.50          -99
      Tops weight at maturity (kg [dm]/ha)                  2094          -99
      By-product produced (stalk) at maturity (kg[dm]/ha    1000          -99
      Leaf area index, maximum                              1.77          -99
      Harvest index at maturity                            0.523          -99
      Threshing % at maturity                              64.28          -99
      Grain N at maturity (kg/ha)                             41          -99
      Tops N at maturity (kg/ha)                              59          -99
      Stem N at maturity (kg/ha)                               4          -99
      Grain N at maturity (%)                               3.76          -99
      Tops weight at anthesis (kg [dm]/ha)                   361          -99
      Tops N at anthesis (kg/ha)                              11          -99
      Leaf number per stem at maturity                      9.05          -99
      Grain oil at maturity (%)                             2.91          -99
      Canopy height (m)                                     0.69          -99
      Harvest maturity day (dap)                              54          -99
      Emergence day (dap)                                      5          -99


*ENVIRONMENTAL AND STRESS FACTORS

 |-----Development Phase------|--------------------------------------Environment--------------------------------------|-----------------Stress-----------------|
                              |---------------Average--------------|-----Cumulative-----|--------Count of days--------|          (0=Min, 1=Max Stress)         |
                         Time  Temp  Temp  Temp Solar Photop                Evapo    Pot TMIN TMIN TMAX TMAX TMAX RAIN|----Water----|---Nitrogen--|-Phosphorus-|
                         Span   Max   Min  Mean   Rad  [day]    CO2   Rain  Trans     ET   <    <    >    >    >    >   Photo         Photo         Photo
                         days    øC    øC    øC MJ/m2     hr    ppm     mm     mm     mm  0øC  2øC 30øC 32øC 34øC  0mm  synth Growth  synth Growth  synth Growth
----------------------------------------------------------------------------------------------------------------------------------------------------------------
 Emergence -First Flower   18  29.2  19.3  24.3  18.4  12.12  340.9   57.5    0.0    0.0    0    0    7    1    0    8  0.000  0.000  0.000  0.167  0.000  0.000
 First Flower-First Seed   10  29.8  19.5  24.7  18.4  12.16  340.9   16.2    0.0    0.0    0    0    4    1    0    2  0.000  0.000  0.000  0.000  0.000  0.000
 First Seed - Phys. Mat.   12  27.6  19.1  23.3  16.5  12.18  341.0   48.5    0.0    0.0    0    0    1    0    0    6  0.000  0.000  0.000  0.000  0.000  0.000
 Emergence  - Phys. Mat.   40  28.9  19.3  24.1  17.9  12.15  340.9  122.2    0.0    0.0    0    0   12    2    0   16  0.000  0.000  0.000  0.075  0.000  0.000


 Planting to Harvest       68  29.0  19.3  24.1  18.0  12.13  340.9  258.0    0.0    0.0    0    0   19    2    0   28  0.000  0.000  0.000  0.044  0.000  0.000
----------------------------------------------------------------------------------------------------------------------------------------------------------------

--------------------------------------------------------------------------------------------------------------

                  Dry bean YIELD :     1094 kg/ha    [Dry weight] 

**************************************************************************************************************

*DSSAT Cropping System Model Ver. 4.6.1.000 -release      JUL 11, 2017; 16:24:41
                                                                                
*RUN   4        : SIM                       CRGRO046 0\000000    1              
 MODEL          : CRGRO046 - Dry bean                                           
 EXPERIMENT     : 0\000000 BN PALMIRA_ANALISIS SENSIBILIDAD                     
 DATA PATH      : D:\B\0\00000                                                  
 TREATMENT  1   : SIM                       CRGRO046                            
                                                                                
                                                                                
 CROP           : Dry bean         CULTIVAR : Jatu Rong        ECOTYPE :ANDIND  
 STARTING DATE  : APR  2 1983                                                   
 PLANTING DATE  : APR 16 1983        PLANTS/m2 : 26.6     ROW SPACING :  60.cm  
 WEATHER        : PALM8034                                                      
 SOIL           : CCPA000030     TEXTURE : C     -   Silty Clay Loam            
 WATER BALANCE  : NOT SIMULATED ; NO H2O-STRESS                                 
 IRRIGATION     :                                                               
 NITROGEN BAL.  : NOT SIMULATED ; NO N-STRESS                                   
 N-FERTILIZER   :                                                               
 RESIDUE/MANURE :                                                               
 ENVIRONM. OPT. : DAYL=    0.00  SRAD=    0.00  TMAX=    0.00  TMIN=    0.00    
                  RAIN=    0.00  CO2 =    0.00  DEW =    0.00  WIND=    0.00    
 SIMULATION OPT : WATER   :N  NITROGEN:N  N-FIX:N  PHOSPH :N  PESTS  :N         
                  PHOTO   :L  ET      :R  INFIL:S  HYDROL :R  SOM    :G         
                  CO2 342ppm  NSWIT   :1  EVAP :S  SOIL   :2  STEMP  :D         
 MANAGEMENT OPT : PLANTING:A  IRRIG   :A  FERT :D  RESIDUE:N  HARVEST:M         
                  WEATHER :M  TILLAGE :N                                        
                                                                                
*SUMMARY OF SOIL AND GENETIC INPUT PARAMETERS                                   
                                                                                
 Dry bean   CULTIVAR :000000-Jatu Rong          ECOTYPE :ANDIND                 
 CSDVAR :12.17  PPSEN  : 0.05  EMG-FLW:17.00  FLW-FSD: 9.00  FSD-PHM : 11.00    
 WTPSD  :0.600  SDPDVR : 3.50  SDFDUR :15.00  PODDUR :10.00  XFRUIT  :  1.00    
 THRESH : 78.0  SDPRO  :0.235  SDLIP   : 0.030                                  


*SIMULATED CROP AND SOIL STATUS AT MAIN DEVELOPMENT STAGES

 RUN NO.     4     SIM                     

        CROP GROWTH     BIOMASS         LEAF   CROP N     STRESS      STRESS                                           
   DATE  AGE STAGE        kg/ha    LAI   NUM  kg/ha  %   H2O  Nitr Phos1 Phos2  RSTG                                   
 ------  --- ----------   -----  -----  ----  ---  ---  ----  ----  ----  ----  ----                                   
  2 APR    0 Start Sim        0   0.00   0.0    0  0.0  0.00  0.00  0.00  0.00     0
 16 APR    0 Sowing           0   0.00   0.0    0  0.0  0.00  0.00  0.00  0.00     0
 21 APR    5 Emergence       44   0.08   0.2    1  3.4  0.00  0.00  0.00  0.00     0
 21 APR    5 End Juven.      44   0.08   0.2    1  3.4  0.00  0.00  0.00  0.00     0
 24 APR    8 Unifoliate      48   0.09   1.1    2  3.3  0.00  0.66  0.00  0.00     0
 26 APR   10 Flower Ind      55   0.10   1.7    2  3.2  0.00  0.43  0.00  0.00     0
  9 MAY   23 First Flwr     378   1.02   5.6   12  3.0  0.00  0.01  0.00  0.00     1
 11 MAY   25 First Pod      507   1.33   6.2   15  3.0  0.00  0.00  0.00  0.00     3
 18 MAY   32 First Seed    1064   1.75   8.3   33  3.1  0.00  0.00  0.00  0.00     5
 21 MAY   35 End Msnode    1372   1.79   9.2   42  3.0  0.00  0.00  0.00  0.00     5
 25 MAY   39 End Pod       1786   1.71   9.2   53  3.0  0.00  0.00  0.00  0.00     5
 28 MAY   42 End Leaf      2072   1.57   9.2   61  2.9  0.00  0.00  0.00  0.00     5
 31 MAY   45 Phys. Mat     2349   1.42   9.2   67  2.9  0.00  0.00  0.00  0.00     7
  9 JUN   54 Harv. Mat     2170   0.10   9.2   61  2.8  0.00  0.00  0.00  0.00     8
  9 JUN   54 Harvest       2170   0.10   9.2   61  2.8  0.00  0.00  0.00  0.00     8


*MAIN GROWTH AND DEVELOPMENT VARIABLES

@     VARIABLE                                         SIMULATED     MEASURED
      --------                                         ---------     --------
      Anthesis day (dap)                                      23          -99
      First pod day (dap)                                     25          -99
      First seed day (dap)                                    32          -99
      Physiological maturity day (dap)                        45          -99
      Yield at harvest maturity (kg [dm]/ha)                1152          -99
      Pod/Ear/Panicle weight at maturity (kg [dm]/ha)       1746          -99
      Number at maturity (no/m2)                             381          -99
      Unit wt at maturity (g [dm]/unit)                   0.3019          -99
      Number at maturity (no/unit)                          3.50          -99
      Tops weight at maturity (kg [dm]/ha)                  2170          -99
      By-product produced (stalk) at maturity (kg[dm]/ha    1020          -99
      Leaf area index, maximum                              1.79          -99
      Harvest index at maturity                            0.531          -99
      Threshing % at maturity                              65.97          -99
      Grain N at maturity (kg/ha)                             43          -99
      Tops N at maturity (kg/ha)                              61          -99
      Stem N at maturity (kg/ha)                               5          -99
      Grain N at maturity (%)                               3.78          -99
      Tops weight at anthesis (kg [dm]/ha)                   378          -99
      Tops N at anthesis (kg/ha)                              12          -99
      Leaf number per stem at maturity                      9.21          -99
      Grain oil at maturity (%)                             2.91          -99
      Canopy height (m)                                     0.71          -99
      Harvest maturity day (dap)                              54          -99
      Emergence day (dap)                                      5          -99


*ENVIRONMENTAL AND STRESS FACTORS

 |-----Development Phase------|--------------------------------------Environment--------------------------------------|-----------------Stress-----------------|
                              |---------------Average--------------|-----Cumulative-----|--------Count of days--------|          (0=Min, 1=Max Stress)         |
                         Time  Temp  Temp  Temp Solar Photop                Evapo    Pot TMIN TMIN TMAX TMAX TMAX RAIN|----Water----|---Nitrogen--|-Phosphorus-|
                         Span   Max   Min  Mean   Rad  [day]    CO2   Rain  Trans     ET   <    <    >    >    >    >   Photo         Photo         Photo
                         days    øC    øC    øC MJ/m2     hr    ppm     mm     mm     mm  0øC  2øC 30øC 32øC 34øC  0mm  synth Growth  synth Growth  synth Growth
----------------------------------------------------------------------------------------------------------------------------------------------------------------
 Emergence -First Flower   18  29.6  19.7  24.7  18.4  12.12  342.3   40.2    0.0    0.0    0    0    8    0    0    7  0.000  0.000  0.000  0.169  0.000  0.000
 First Flower-First Seed    9  29.9  19.8  24.8  18.3  12.16  342.4   44.8    0.0    0.0    0    0    4    0    0    4  0.000  0.000  0.000  0.000  0.000  0.000
 First Seed - Phys. Mat.   13  29.7  19.4  24.6  18.2  12.18  342.5   28.8    0.0    0.0    0    0    6    0    0    5  0.000  0.000  0.000  0.000  0.000  0.000
 Emergence  - Phys. Mat.   40  29.7  19.6  24.7  18.3  12.15  342.4  113.8    0.0    0.0    0    0   18    0    0   16  0.000  0.000  0.000  0.076  0.000  0.000


 Planting to Harvest       68  29.4  19.6  24.5  18.2  12.13  342.3  223.1    0.0    0.0    0    0   25    0    0   32  0.000  0.000  0.000  0.045  0.000  0.000
----------------------------------------------------------------------------------------------------------------------------------------------------------------

--------------------------------------------------------------------------------------------------------------

                  Dry bean YIELD :     1152 kg/ha    [Dry weight] 

**************************************************************************************************************

*DSSAT Cropping System Model Ver. 4.6.1.000 -release      JUL 11, 2017; 16:24:41
                                                                                
*RUN   5        : SIM                       CRGRO046 0\000000    1              
 MODEL          : CRGRO046 - Dry bean                                           
 EXPERIMENT     : 0\000000 BN PALMIRA_ANALISIS SENSIBILIDAD                     
 DATA PATH      : D:\B\0\00000                                                  
 TREATMENT  1   : SIM                       CRGRO046                            
                                                                                
                                                                                
 CROP           : Dry bean         CULTIVAR : Jatu Rong        ECOTYPE :ANDIND  
 STARTING DATE  : APR  1 1984                                                   
 PLANTING DATE  : APR 15 1984        PLANTS/m2 : 26.6     ROW SPACING :  60.cm  
 WEATHER        : PALM8034                                                      
 SOIL           : CCPA000030     TEXTURE : C     -   Silty Clay Loam            
 WATER BALANCE  : NOT SIMULATED ; NO H2O-STRESS                                 
 IRRIGATION     :                                                               
 NITROGEN BAL.  : NOT SIMULATED ; NO N-STRESS                                   
 N-FERTILIZER   :                                                               
 RESIDUE/MANURE :                                                               
 ENVIRONM. OPT. : DAYL=    0.00  SRAD=    0.00  TMAX=    0.00  TMIN=    0.00    
                  RAIN=    0.00  CO2 =    0.00  DEW =    0.00  WIND=    0.00    
 SIMULATION OPT : WATER   :N  NITROGEN:N  N-FIX:N  PHOSPH :N  PESTS  :N         
                  PHOTO   :L  ET      :R  INFIL:S  HYDROL :R  SOM    :G         
                  CO2 344ppm  NSWIT   :1  EVAP :S  SOIL   :2  STEMP  :D         
 MANAGEMENT OPT : PLANTING:A  IRRIG   :A  FERT :D  RESIDUE:N  HARVEST:M         
                  WEATHER :M  TILLAGE :N                                        
                                                                                
*SUMMARY OF SOIL AND GENETIC INPUT PARAMETERS                                   
                                                                                
 Dry bean   CULTIVAR :000000-Jatu Rong          ECOTYPE :ANDIND                 
 CSDVAR :12.17  PPSEN  : 0.05  EMG-FLW:17.00  FLW-FSD: 9.00  FSD-PHM : 11.00    
 WTPSD  :0.600  SDPDVR : 3.50  SDFDUR :15.00  PODDUR :10.00  XFRUIT  :  1.00    
 THRESH : 78.0  SDPRO  :0.235  SDLIP   : 0.030                                  


*SIMULATED CROP AND SOIL STATUS AT MAIN DEVELOPMENT STAGES

 RUN NO.     5     SIM                     

        CROP GROWTH     BIOMASS         LEAF   CROP N     STRESS      STRESS                                           
   DATE  AGE STAGE        kg/ha    LAI   NUM  kg/ha  %   H2O  Nitr Phos1 Phos2  RSTG                                   
 ------  --- ----------   -----  -----  ----  ---  ---  ----  ----  ----  ----  ----                                   
  1 APR    0 Start Sim        0   0.00   0.0    0  0.0  0.00  0.00  0.00  0.00     0
 15 APR    0 Sowing           0   0.00   0.0    0  0.0  0.00  0.00  0.00  0.00     0
 20 APR    5 Emergence       44   0.08   0.2    1  3.4  0.00  0.00  0.00  0.00     0
 20 APR    5 End Juven.      44   0.08   0.2    1  3.4  0.00  0.00  0.00  0.00     0
 23 APR    8 Unifoliate      49   0.09   1.1    2  3.3  0.00  0.64  0.00  0.00     0
 25 APR   10 Flower Ind      55   0.10   1.7    2  3.2  0.00  0.45  0.00  0.00     0
  8 MAY   23 First Flwr     358   0.93   5.4   11  3.0  0.00  0.01  0.00  0.00     1
 11 MAY   26 First Pod      552   1.37   6.3   17  3.0  0.00  0.00  0.00  0.00     3
 18 MAY   33 First Seed    1117   1.74   8.3   35  3.1  0.00  0.00  0.00  0.00     5
 20 MAY   35 End Msnode    1321   1.77   8.9   40  3.1  0.00  0.00  0.00  0.00     5
 25 MAY   40 End Pod       1799   1.67   8.9   54  3.0  0.00  0.00  0.00  0.00     5
 28 MAY   43 End Leaf      2078   1.54   8.9   62  3.0  0.00  0.00  0.00  0.00     5
 31 MAY   46 Phys. Mat     2361   1.39   8.9   69  2.9  0.00  0.00  0.00  0.00     7
  9 JUN   55 Harv. Mat     2206   0.10   8.9   63  2.9  0.00  0.00  0.00  0.00     8
  9 JUN   55 Harvest       2206   0.10   8.9   63  2.9  0.00  0.00  0.00  0.00     8


*MAIN GROWTH AND DEVELOPMENT VARIABLES

@     VARIABLE                                         SIMULATED     MEASURED
      --------                                         ---------     --------
      Anthesis day (dap)                                      23          -99
      First pod day (dap)                                     26          -99
      First seed day (dap)                                    33          -99
      Physiological maturity day (dap)                        46          -99
      Yield at harvest maturity (kg [dm]/ha)                1211          -99
      Pod/Ear/Panicle weight at maturity (kg [dm]/ha)       1821          -99
      Number at maturity (no/m2)                             378          -99
      Unit wt at maturity (g [dm]/unit)                   0.3201          -99
      Number at maturity (no/unit)                          3.50          -99
      Tops weight at maturity (kg [dm]/ha)                  2206          -99
      By-product produced (stalk) at maturity (kg[dm]/ha     990          -99
      Leaf area index, maximum                              1.77          -99
      Harvest index at maturity                            0.549          -99
      Threshing % at maturity                              66.53          -99
      Grain N at maturity (kg/ha)                             45          -99
      Tops N at maturity (kg/ha)                              63          -99
      Stem N at maturity (kg/ha)                               4          -99
      Grain N at maturity (%)                               3.73          -99
      Tops weight at anthesis (kg [dm]/ha)                   358          -99
      Tops N at anthesis (kg/ha)                              11          -99
      Leaf number per stem at maturity                      8.89          -99
      Grain oil at maturity (%)                             2.91          -99
      Canopy height (m)                                     0.67          -99
      Harvest maturity day (dap)                              55          -99
      Emergence day (dap)                                      5          -99


*ENVIRONMENTAL AND STRESS FACTORS

 |-----Development Phase------|--------------------------------------Environment--------------------------------------|-----------------Stress-----------------|
                              |---------------Average--------------|-----Cumulative-----|--------Count of days--------|          (0=Min, 1=Max Stress)         |
                         Time  Temp  Temp  Temp Solar Photop                Evapo    Pot TMIN TMIN TMAX TMAX TMAX RAIN|----Water----|---Nitrogen--|-Phosphorus-|
                         Span   Max   Min  Mean   Rad  [day]    CO2   Rain  Trans     ET   <    <    >    >    >    >   Photo         Photo         Photo
                         days    øC    øC    øC MJ/m2     hr    ppm     mm     mm     mm  0øC  2øC 30øC 32øC 34øC  0mm  synth Growth  synth Growth  synth Growth
----------------------------------------------------------------------------------------------------------------------------------------------------------------
 Emergence -First Flower   18  28.4  18.8  23.6  18.1  12.12  344.1   64.5    0.0    0.0    0    0    2    0    0   11  0.000  0.000  0.000  0.166  0.000  0.000
 First Flower-First Seed   10  28.8  18.8  23.8  18.2  12.16  344.2   11.0    0.0    0.0    0    0    1    0    0    3  0.000  0.000  0.000  0.000  0.000  0.000
 First Seed - Phys. Mat.   13  28.0  18.8  23.4  17.2  12.18  344.3   33.2    0.0    0.0    0    0    3    0    0    8  0.000  0.000  0.000  0.000  0.000  0.000
 Emergence  - Phys. Mat.   41  28.4  18.8  23.6  17.8  12.15  344.2  108.7    0.0    0.0    0    0    6    0    0   22  0.000  0.000  0.000  0.073  0.000  0.000


 Planting to Harvest       69  28.5  18.9  23.7  18.0  12.13  344.2  192.7    0.0    0.0    0    0   12    0    0   36  0.000  0.000  0.000  0.043  0.000  0.000
----------------------------------------------------------------------------------------------------------------------------------------------------------------

--------------------------------------------------------------------------------------------------------------

                  Dry bean YIELD :     1211 kg/ha    [Dry weight] 

**************************************************************************************************************

*DSSAT Cropping System Model Ver. 4.6.1.000 -release      JUL 11, 2017; 16:24:41
                                                                                
*RUN   6        : SIM                       CRGRO046 0\000000    1              
 MODEL          : CRGRO046 - Dry bean                                           
 EXPERIMENT     : 0\000000 BN PALMIRA_ANALISIS SENSIBILIDAD                     
 DATA PATH      : D:\B\0\00000                                                  
 TREATMENT  1   : SIM                       CRGRO046                            
                                                                                
                                                                                
 CROP           : Dry bean         CULTIVAR : Jatu Rong        ECOTYPE :ANDIND  
 STARTING DATE  : APR  2 1985                                                   
 PLANTING DATE  : APR 16 1985        PLANTS/m2 : 26.6     ROW SPACING :  60.cm  
 WEATHER        : PALM8034                                                      
 SOIL           : CCPA000030     TEXTURE : C     -   Silty Clay Loam            
 WATER BALANCE  : NOT SIMULATED ; NO H2O-STRESS                                 
 IRRIGATION     :                                                               
 NITROGEN BAL.  : NOT SIMULATED ; NO N-STRESS                                   
 N-FERTILIZER   :                                                               
 RESIDUE/MANURE :                                                               
 ENVIRONM. OPT. : DAYL=    0.00  SRAD=    0.00  TMAX=    0.00  TMIN=    0.00    
                  RAIN=    0.00  CO2 =    0.00  DEW =    0.00  WIND=    0.00    
 SIMULATION OPT : WATER   :N  NITROGEN:N  N-FIX:N  PHOSPH :N  PESTS  :N         
                  PHOTO   :L  ET      :R  INFIL:S  HYDROL :R  SOM    :G         
                  CO2 346ppm  NSWIT   :1  EVAP :S  SOIL   :2  STEMP  :D         
 MANAGEMENT OPT : PLANTING:A  IRRIG   :A  FERT :D  RESIDUE:N  HARVEST:M         
                  WEATHER :M  TILLAGE :N                                        
                                                                                
*SUMMARY OF SOIL AND GENETIC INPUT PARAMETERS                                   
                                                                                
 Dry bean   CULTIVAR :000000-Jatu Rong          ECOTYPE :ANDIND                 
 CSDVAR :12.17  PPSEN  : 0.05  EMG-FLW:17.00  FLW-FSD: 9.00  FSD-PHM : 11.00    
 WTPSD  :0.600  SDPDVR : 3.50  SDFDUR :15.00  PODDUR :10.00  XFRUIT  :  1.00    
 THRESH : 78.0  SDPRO  :0.235  SDLIP   : 0.030                                  


*SIMULATED CROP AND SOIL STATUS AT MAIN DEVELOPMENT STAGES

 RUN NO.     6     SIM                     

        CROP GROWTH     BIOMASS         LEAF   CROP N     STRESS      STRESS                                           
   DATE  AGE STAGE        kg/ha    LAI   NUM  kg/ha  %   H2O  Nitr Phos1 Phos2  RSTG                                   
 ------  --- ----------   -----  -----  ----  ---  ---  ----  ----  ----  ----  ----                                   
  2 APR    0 Start Sim        0   0.00   0.0    0  0.0  0.00  0.00  0.00  0.00     0
 16 APR    0 Sowing           0   0.00   0.0    0  0.0  0.00  0.00  0.00  0.00     0
 21 APR    5 Emergence       44   0.08   0.2    1  3.4  0.00  0.00  0.00  0.00     0
 21 APR    5 End Juven.      44   0.08   0.2    1  3.4  0.00  0.00  0.00  0.00     0
 24 APR    8 Unifoliate      48   0.09   1.1    2  3.3  0.00  0.66  0.00  0.00     0
 26 APR   10 Flower Ind      55   0.10   1.6    2  3.2  0.00  0.43  0.00  0.00     0
  9 MAY   23 First Flwr     368   0.94   5.4   11  3.0  0.00  0.01  0.00  0.00     1
 12 MAY   26 First Pod      561   1.37   6.2   17  3.0  0.00  0.00  0.00  0.00     3
 19 MAY   33 First Seed    1125   1.77   8.3   35  3.1  0.00  0.00  0.00  0.00     5
 22 MAY   36 End Msnode    1445   1.82   9.2   44  3.0  0.00  0.00  0.00  0.00     5
 26 MAY   40 End Pod       1865   1.72   9.2   56  3.0  0.00  0.00  0.00  0.00     5
 29 MAY   43 End Leaf      2149   1.58   9.2   63  2.9  0.00  0.00  0.00  0.00     5
  1 JUN   46 Phys. Mat     2406   1.42   9.2   69  2.9  0.00  0.00  0.00  0.00     7
 10 JUN   55 Harv. Mat     2242   0.10   9.2   64  2.9  0.00  0.00  0.00  0.00     8
 10 JUN   55 Harvest       2242   0.10   9.2   64  2.9  0.00  0.00  0.00  0.00     8


*MAIN GROWTH AND DEVELOPMENT VARIABLES

@     VARIABLE                                         SIMULATED     MEASURED
      --------                                         ---------     --------
      Anthesis day (dap)                                      23          -99
      First pod day (dap)                                     26          -99
      First seed day (dap)                                    33          -99
      Physiological maturity day (dap)                        46          -99
      Yield at harvest maturity (kg [dm]/ha)                1242          -99
      Pod/Ear/Panicle weight at maturity (kg [dm]/ha)       1825          -99
      Number at maturity (no/m2)                             389          -99
      Unit wt at maturity (g [dm]/unit)                   0.3191          -99
      Number at maturity (no/unit)                          3.50          -99
      Tops weight at maturity (kg [dm]/ha)                  2242          -99
      By-product produced (stalk) at maturity (kg[dm]/ha    1000          -99
      Leaf area index, maximum                              1.82          -99
      Harvest index at maturity                            0.554          -99
      Threshing % at maturity                              68.03          -99
      Grain N at maturity (kg/ha)                             47          -99
      Tops N at maturity (kg/ha)                              64          -99
      Stem N at maturity (kg/ha)                               5          -99
      Grain N at maturity (%)                               3.77          -99
      Tops weight at anthesis (kg [dm]/ha)                   368          -99
      Tops N at anthesis (kg/ha)                              11          -99
      Leaf number per stem at maturity                      9.17          -99
      Grain oil at maturity (%)                             2.88          -99
      Canopy height (m)                                     0.70          -99
      Harvest maturity day (dap)                              55          -99
      Emergence day (dap)                                      5          -99


*ENVIRONMENTAL AND STRESS FACTORS

 |-----Development Phase------|--------------------------------------Environment--------------------------------------|-----------------Stress-----------------|
                              |---------------Average--------------|-----Cumulative-----|--------Count of days--------|          (0=Min, 1=Max Stress)         |
                         Time  Temp  Temp  Temp Solar Photop                Evapo    Pot TMIN TMIN TMAX TMAX TMAX RAIN|----Water----|---Nitrogen--|-Phosphorus-|
                         Span   Max   Min  Mean   Rad  [day]    CO2   Rain  Trans     ET   <    <    >    >    >    >   Photo         Photo         Photo
                         days    øC    øC    øC MJ/m2     hr    ppm     mm     mm     mm  0øC  2øC 30øC 32øC 34øC  0mm  synth Growth  synth Growth  synth Growth
----------------------------------------------------------------------------------------------------------------------------------------------------------------
 Emergence -First Flower   18  29.4  18.5  23.9  19.3  12.12  345.6   39.6    0.0    0.0    0    0    5    0    0    7  0.000  0.000  0.000  0.167  0.000  0.000
 First Flower-First Seed   10  28.1  18.7  23.4  17.7  12.16  345.7   39.2    0.0    0.0    0    0    1    0    0    8  0.000  0.000  0.000  0.000  0.000  0.000
 First Seed - Phys. Mat.   13  29.8  19.7  24.7  18.0  12.18  345.7   27.5    0.0    0.0    0    0    5    0    0    5  0.000  0.000  0.000  0.000  0.000  0.000
 Emergence  - Phys. Mat.   41  29.2  18.9  24.1  18.5  12.15  345.7  106.3    0.0    0.0    0    0   11    0    0   20  0.000  0.000  0.000  0.073  0.000  0.000


 Planting to Harvest       69  29.2  18.9  24.1  18.6  12.13  345.7  157.3    0.0    0.0    0    0   20    0    0   30  0.000  0.000  0.000  0.044  0.000  0.000
----------------------------------------------------------------------------------------------------------------------------------------------------------------

--------------------------------------------------------------------------------------------------------------

                  Dry bean YIELD :     1242 kg/ha    [Dry weight] 

**************************************************************************************************************

*DSSAT Cropping System Model Ver. 4.6.1.000 -release      JUL 11, 2017; 16:24:41
                                                                                
*RUN   7        : SIM                       CRGRO046 0\000000    1              
 MODEL          : CRGRO046 - Dry bean                                           
 EXPERIMENT     : 0\000000 BN PALMIRA_ANALISIS SENSIBILIDAD                     
 DATA PATH      : D:\B\0\00000                                                  
 TREATMENT  1   : SIM                       CRGRO046                            
                                                                                
                                                                                
 CROP           : Dry bean         CULTIVAR : Jatu Rong        ECOTYPE :ANDIND  
 STARTING DATE  : APR  2 1986                                                   
 PLANTING DATE  : APR 16 1986        PLANTS/m2 : 26.6     ROW SPACING :  60.cm  
 WEATHER        : PALM8034                                                      
 SOIL           : CCPA000030     TEXTURE : C     -   Silty Clay Loam            
 WATER BALANCE  : NOT SIMULATED ; NO H2O-STRESS                                 
 IRRIGATION     :                                                               
 NITROGEN BAL.  : NOT SIMULATED ; NO N-STRESS                                   
 N-FERTILIZER   :                                                               
 RESIDUE/MANURE :                                                               
 ENVIRONM. OPT. : DAYL=    0.00  SRAD=    0.00  TMAX=    0.00  TMIN=    0.00    
                  RAIN=    0.00  CO2 =    0.00  DEW =    0.00  WIND=    0.00    
 SIMULATION OPT : WATER   :N  NITROGEN:N  N-FIX:N  PHOSPH :N  PESTS  :N         
                  PHOTO   :L  ET      :R  INFIL:S  HYDROL :R  SOM    :G         
                  CO2 347ppm  NSWIT   :1  EVAP :S  SOIL   :2  STEMP  :D         
 MANAGEMENT OPT : PLANTING:A  IRRIG   :A  FERT :D  RESIDUE:N  HARVEST:M         
                  WEATHER :M  TILLAGE :N                                        
                                                                                
*SUMMARY OF SOIL AND GENETIC INPUT PARAMETERS                                   
                                                                                
 Dry bean   CULTIVAR :000000-Jatu Rong          ECOTYPE :ANDIND                 
 CSDVAR :12.17  PPSEN  : 0.05  EMG-FLW:17.00  FLW-FSD: 9.00  FSD-PHM : 11.00    
 WTPSD  :0.600  SDPDVR : 3.50  SDFDUR :15.00  PODDUR :10.00  XFRUIT  :  1.00    
 THRESH : 78.0  SDPRO  :0.235  SDLIP   : 0.030                                  


*SIMULATED CROP AND SOIL STATUS AT MAIN DEVELOPMENT STAGES

 RUN NO.     7     SIM                     

        CROP GROWTH     BIOMASS         LEAF   CROP N     STRESS      STRESS                                           
   DATE  AGE STAGE        kg/ha    LAI   NUM  kg/ha  %   H2O  Nitr Phos1 Phos2  RSTG                                   
 ------  --- ----------   -----  -----  ----  ---  ---  ----  ----  ----  ----  ----                                   
  2 APR    0 Start Sim        0   0.00   0.0    0  0.0  0.00  0.00  0.00  0.00     0
 16 APR    0 Sowing           0   0.00   0.0    0  0.0  0.00  0.00  0.00  0.00     0
 21 APR    5 Emergence       44   0.08   0.2    1  3.4  0.00  0.00  0.00  0.00     0
 21 APR    5 End Juven.      44   0.08   0.2    1  3.4  0.00  0.00  0.00  0.00     0
 24 APR    8 Unifoliate      48   0.09   1.1    2  3.3  0.00  0.66  0.00  0.00     0
 26 APR   10 Flower Ind      55   0.10   1.7    2  3.2  0.00  0.44  0.00  0.00     0
  9 MAY   23 First Flwr     385   1.01   5.6   12  3.1  0.00  0.02  0.00  0.00     1
 12 MAY   26 First Pod      593   1.44   6.5   18  3.0  0.00  0.00  0.00  0.00     3
 19 MAY   33 First Seed    1203   1.79   8.6   37  3.1  0.00  0.00  0.00  0.00     5
 21 MAY   35 End Msnode    1418   1.81   9.2   43  3.1  0.00  0.00  0.00  0.00     5
 25 MAY   39 End Pod       1848   1.73   9.2   55  3.0  0.00  0.00  0.00  0.00     5
 28 MAY   42 End Leaf      2139   1.59   9.2   62  2.9  0.00  0.00  0.00  0.00     5
 31 MAY   45 Phys. Mat     2416   1.44   9.2   69  2.9  0.00  0.00  0.00  0.00     7
  9 JUN   54 Harv. Mat     2205   0.10   9.2   62  2.8  0.00  0.00  0.00  0.00     8
  9 JUN   54 Harvest       2205   0.10   9.2   62  2.8  0.00  0.00  0.00  0.00     8


*MAIN GROWTH AND DEVELOPMENT VARIABLES

@     VARIABLE                                         SIMULATED     MEASURED
      --------                                         ---------     --------
      Anthesis day (dap)                                      23          -99
      First pod day (dap)                                     26          -99
      First seed day (dap)                                    33          -99
      Physiological maturity day (dap)                        45          -99
      Yield at harvest maturity (kg [dm]/ha)                1146          -99
      Pod/Ear/Panicle weight at maturity (kg [dm]/ha)       1744          -99
      Number at maturity (no/m2)                             397          -99
      Unit wt at maturity (g [dm]/unit)                   0.2883          -99
      Number at maturity (no/unit)                          3.50          -99
      Tops weight at maturity (kg [dm]/ha)                  2205          -99
      By-product produced (stalk) at maturity (kg[dm]/ha    1060          -99
      Leaf area index, maximum                              1.81          -99
      Harvest index at maturity                            0.520          -99
      Threshing % at maturity                              65.72          -99
      Grain N at maturity (kg/ha)                             43          -99
      Tops N at maturity (kg/ha)                              62          -99
      Stem N at maturity (kg/ha)                               5          -99
      Grain N at maturity (%)                               3.76          -99
      Tops weight at anthesis (kg [dm]/ha)                   385          -99
      Tops N at anthesis (kg/ha)                              12          -99
      Leaf number per stem at maturity                      9.21          -99
      Grain oil at maturity (%)                             2.90          -99
      Canopy height (m)                                     0.71          -99
      Harvest maturity day (dap)                              54          -99
      Emergence day (dap)                                      5          -99


*ENVIRONMENTAL AND STRESS FACTORS

 |-----Development Phase------|--------------------------------------Environment--------------------------------------|-----------------Stress-----------------|
                              |---------------Average--------------|-----Cumulative-----|--------Count of days--------|          (0=Min, 1=Max Stress)         |
                         Time  Temp  Temp  Temp Solar Photop                Evapo    Pot TMIN TMIN TMAX TMAX TMAX RAIN|----Water----|---Nitrogen--|-Phosphorus-|
                         Span   Max   Min  Mean   Rad  [day]    CO2   Rain  Trans     ET   <    <    >    >    >    >   Photo         Photo         Photo
                         days    øC    øC    øC MJ/m2     hr    ppm     mm     mm     mm  0øC  2øC 30øC 32øC 34øC  0mm  synth Growth  synth Growth  synth Growth
----------------------------------------------------------------------------------------------------------------------------------------------------------------
 Emergence -First Flower   18  30.2  19.4  24.8  19.2  12.12  346.8   46.8    0.0    0.0    0    0   10    3    0   10  0.000  0.000  0.000  0.171  0.000  0.000
 First Flower-First Seed   10  31.5  19.3  25.4  20.1  12.16  346.9   26.0    0.0    0.0    0    0    9    2    0    6  0.000  0.000  0.000  0.000  0.000  0.000
 First Seed - Phys. Mat.   12  31.0  19.3  25.1  19.3  12.18  346.9   69.2    0.0    0.0    0    0   11    0    0    7  0.000  0.000  0.000  0.000  0.000  0.000
 Emergence  - Phys. Mat.   40  30.8  19.4  25.1  19.5  12.15  346.9  142.0    0.0    0.0    0    0   30    5    0   23  0.000  0.000  0.000  0.077  0.000  0.000


 Planting to Harvest       68  29.7  19.2  24.5  18.8  12.13  346.8  309.9    0.0    0.0    0    0   35    5    0   39  0.000  0.000  0.000  0.045  0.000  0.000
----------------------------------------------------------------------------------------------------------------------------------------------------------------

--------------------------------------------------------------------------------------------------------------

                  Dry bean YIELD :     1146 kg/ha    [Dry weight] 

**************************************************************************************************************

*DSSAT Cropping System Model Ver. 4.6.1.000 -release      JUL 11, 2017; 16:24:41
                                                                                
*RUN   8        : SIM                       CRGRO046 0\000000    1              
 MODEL          : CRGRO046 - Dry bean                                           
 EXPERIMENT     : 0\000000 BN PALMIRA_ANALISIS SENSIBILIDAD                     
 DATA PATH      : D:\B\0\00000                                                  
 TREATMENT  1   : SIM                       CRGRO046                            
                                                                                
                                                                                
 CROP           : Dry bean         CULTIVAR : Jatu Rong        ECOTYPE :ANDIND  
 STARTING DATE  : APR  2 1987                                                   
 PLANTING DATE  : APR 16 1987        PLANTS/m2 : 26.6     ROW SPACING :  60.cm  
 WEATHER        : PALM8034                                                      
 SOIL           : CCPA000030     TEXTURE : C     -   Silty Clay Loam            
 WATER BALANCE  : NOT SIMULATED ; NO H2O-STRESS                                 
 IRRIGATION     :                                                               
 NITROGEN BAL.  : NOT SIMULATED ; NO N-STRESS                                   
 N-FERTILIZER   :                                                               
 RESIDUE/MANURE :                                                               
 ENVIRONM. OPT. : DAYL=    0.00  SRAD=    0.00  TMAX=    0.00  TMIN=    0.00    
                  RAIN=    0.00  CO2 =    0.00  DEW =    0.00  WIND=    0.00    
 SIMULATION OPT : WATER   :N  NITROGEN:N  N-FIX:N  PHOSPH :N  PESTS  :N         
                  PHOTO   :L  ET      :R  INFIL:S  HYDROL :R  SOM    :G         
                  CO2 348ppm  NSWIT   :1  EVAP :S  SOIL   :2  STEMP  :D         
 MANAGEMENT OPT : PLANTING:A  IRRIG   :A  FERT :D  RESIDUE:N  HARVEST:M         
                  WEATHER :M  TILLAGE :N                                        
                                                                                
*SUMMARY OF SOIL AND GENETIC INPUT PARAMETERS                                   
                                                                                
 Dry bean   CULTIVAR :000000-Jatu Rong          ECOTYPE :ANDIND                 
 CSDVAR :12.17  PPSEN  : 0.05  EMG-FLW:17.00  FLW-FSD: 9.00  FSD-PHM : 11.00    
 WTPSD  :0.600  SDPDVR : 3.50  SDFDUR :15.00  PODDUR :10.00  XFRUIT  :  1.00    
 THRESH : 78.0  SDPRO  :0.235  SDLIP   : 0.030                                  


*SIMULATED CROP AND SOIL STATUS AT MAIN DEVELOPMENT STAGES

 RUN NO.     8     SIM                     

        CROP GROWTH     BIOMASS         LEAF   CROP N     STRESS      STRESS                                           
   DATE  AGE STAGE        kg/ha    LAI   NUM  kg/ha  %   H2O  Nitr Phos1 Phos2  RSTG                                   
 ------  --- ----------   -----  -----  ----  ---  ---  ----  ----  ----  ----  ----                                   
  2 APR    0 Start Sim        0   0.00   0.0    0  0.0  0.00  0.00  0.00  0.00     0
 16 APR    0 Sowing           0   0.00   0.0    0  0.0  0.00  0.00  0.00  0.00     0
 21 APR    5 Emergence       44   0.08   0.2    1  3.4  0.00  0.00  0.00  0.00     0
 21 APR    5 End Juven.      44   0.08   0.2    1  3.4  0.00  0.00  0.00  0.00     0
 24 APR    8 Unifoliate      49   0.09   1.1    2  3.3  0.00  0.65  0.00  0.00     0
 26 APR   10 Flower Ind      56   0.10   1.7    2  3.2  0.00  0.43  0.00  0.00     0
  9 MAY   23 First Flwr     407   1.03   5.6   12  3.1  0.00  0.01  0.00  0.00     1
 12 MAY   26 First Pod      623   1.47   6.5   19  3.1  0.00  0.00  0.00  0.00     3
 19 MAY   33 First Seed    1246   1.85   8.6   39  3.1  0.00  0.00  0.00  0.00     5
 21 MAY   35 End Msnode    1472   1.89   9.2   45  3.0  0.00  0.00  0.00  0.00     5
 25 MAY   39 End Pod       1913   1.82   9.2   57  3.0  0.00  0.00  0.00  0.00     5
 28 MAY   42 End Leaf      2217   1.67   9.2   65  2.9  0.00  0.00  0.00  0.00     5
 31 MAY   45 Phys. Mat     2511   1.51   9.2   72  2.9  0.00  0.00  0.00  0.00     7
  9 JUN   54 Harv. Mat     2303   0.10   9.2   65  2.8  0.00  0.00  0.00  0.00     8
  9 JUN   54 Harvest       2303   0.10   9.2   65  2.8  0.00  0.00  0.00  0.00     8


*MAIN GROWTH AND DEVELOPMENT VARIABLES

@     VARIABLE                                         SIMULATED     MEASURED
      --------                                         ---------     --------
      Anthesis day (dap)                                      23          -99
      First pod day (dap)                                     26          -99
      First seed day (dap)                                    33          -99
      Physiological maturity day (dap)                        45          -99
      Yield at harvest maturity (kg [dm]/ha)                1216          -99
      Pod/Ear/Panicle weight at maturity (kg [dm]/ha)       1819          -99
      Number at maturity (no/m2)                             403          -99
      Unit wt at maturity (g [dm]/unit)                   0.3017          -99
      Number at maturity (no/unit)                          3.50          -99
      Tops weight at maturity (kg [dm]/ha)                  2303          -99
      By-product produced (stalk) at maturity (kg[dm]/ha    1090          -99
      Leaf area index, maximum                              1.89          -99
      Harvest index at maturity                            0.528          -99
      Threshing % at maturity                              66.86          -99
      Grain N at maturity (kg/ha)                             46          -99
      Tops N at maturity (kg/ha)                              65          -99
      Stem N at maturity (kg/ha)                               5          -99
      Grain N at maturity (%)                               3.80          -99
      Tops weight at anthesis (kg [dm]/ha)                   407          -99
      Tops N at anthesis (kg/ha)                              12          -99
      Leaf number per stem at maturity                      9.18          -99
      Grain oil at maturity (%)                             2.91          -99
      Canopy height (m)                                     0.71          -99
      Harvest maturity day (dap)                              54          -99
      Emergence day (dap)                                      5          -99


*ENVIRONMENTAL AND STRESS FACTORS

 |-----Development Phase------|--------------------------------------Environment--------------------------------------|-----------------Stress-----------------|
                              |---------------Average--------------|-----Cumulative-----|--------Count of days--------|          (0=Min, 1=Max Stress)         |
                         Time  Temp  Temp  Temp Solar Photop                Evapo    Pot TMIN TMIN TMAX TMAX TMAX RAIN|----Water----|---Nitrogen--|-Phosphorus-|
                         Span   Max   Min  Mean   Rad  [day]    CO2   Rain  Trans     ET   <    <    >    >    >    >   Photo         Photo         Photo
                         days    øC    øC    øC MJ/m2     hr    ppm     mm     mm     mm  0øC  2øC 30øC 32øC 34øC  0mm  synth Growth  synth Growth  synth Growth
----------------------------------------------------------------------------------------------------------------------------------------------------------------
 Emergence -First Flower   18  31.3  18.9  25.1  20.6  12.12  348.5  126.1    0.0    0.0    0    0   15    4    1   13  0.000  0.000  0.000  0.164  0.000  0.000
 First Flower-First Seed   10  30.8  19.0  24.9  19.7  12.16  348.6   22.5    0.0    0.0    0    0    7    3    0    4  0.000  0.000  0.000  0.000  0.000  0.000
 First Seed - Phys. Mat.   12  32.0  19.5  25.7  20.0  12.18  348.6   83.3    0.0    0.0    0    0   12    6    0    6  0.000  0.000  0.000  0.000  0.000  0.000
 Emergence  - Phys. Mat.   40  31.4  19.1  25.2  20.2  12.15  348.5  231.9    0.0    0.0    0    0   34   13    1   23  0.000  0.000  0.000  0.074  0.000  0.000


 Planting to Harvest       68  31.2  19.3  25.3  20.0  12.13  348.5  238.6    0.0    0.0    0    0   53   20    1   27  0.000  0.000  0.000  0.043  0.000  0.000
----------------------------------------------------------------------------------------------------------------------------------------------------------------

--------------------------------------------------------------------------------------------------------------

                  Dry bean YIELD :     1216 kg/ha    [Dry weight] 

**************************************************************************************************************

*DSSAT Cropping System Model Ver. 4.6.1.000 -release      JUL 11, 2017; 16:24:41
                                                                                
*RUN   9        : SIM                       CRGRO046 0\000000    1              
 MODEL          : CRGRO046 - Dry bean                                           
 EXPERIMENT     : 0\000000 BN PALMIRA_ANALISIS SENSIBILIDAD                     
 DATA PATH      : D:\B\0\00000                                                  
 TREATMENT  1   : SIM                       CRGRO046                            
                                                                                
                                                                                
 CROP           : Dry bean         CULTIVAR : Jatu Rong        ECOTYPE :ANDIND  
 STARTING DATE  : APR  1 1988                                                   
 PLANTING DATE  : APR 15 1988        PLANTS/m2 : 26.6     ROW SPACING :  60.cm  
 WEATHER        : PALM8034                                                      
 SOIL           : CCPA000030     TEXTURE : C     -   Silty Clay Loam            
 WATER BALANCE  : NOT SIMULATED ; NO H2O-STRESS                                 
 IRRIGATION     :                                                               
 NITROGEN BAL.  : NOT SIMULATED ; NO N-STRESS                                   
 N-FERTILIZER   :                                                               
 RESIDUE/MANURE :                                                               
 ENVIRONM. OPT. : DAYL=    0.00  SRAD=    0.00  TMAX=    0.00  TMIN=    0.00    
                  RAIN=    0.00  CO2 =    0.00  DEW =    0.00  WIND=    0.00    
 SIMULATION OPT : WATER   :N  NITROGEN:N  N-FIX:N  PHOSPH :N  PESTS  :N         
                  PHOTO   :L  ET      :R  INFIL:S  HYDROL :R  SOM    :G         
                  CO2 351ppm  NSWIT   :1  EVAP :S  SOIL   :2  STEMP  :D         
 MANAGEMENT OPT : PLANTING:A  IRRIG   :A  FERT :D  RESIDUE:N  HARVEST:M         
                  WEATHER :M  TILLAGE :N                                        
                                                                                
*SUMMARY OF SOIL AND GENETIC INPUT PARAMETERS                                   
                                                                                
 Dry bean   CULTIVAR :000000-Jatu Rong          ECOTYPE :ANDIND                 
 CSDVAR :12.17  PPSEN  : 0.05  EMG-FLW:17.00  FLW-FSD: 9.00  FSD-PHM : 11.00    
 WTPSD  :0.600  SDPDVR : 3.50  SDFDUR :15.00  PODDUR :10.00  XFRUIT  :  1.00    
 THRESH : 78.0  SDPRO  :0.235  SDLIP   : 0.030                                  


*SIMULATED CROP AND SOIL STATUS AT MAIN DEVELOPMENT STAGES

 RUN NO.     9     SIM                     

        CROP GROWTH     BIOMASS         LEAF   CROP N     STRESS      STRESS                                           
   DATE  AGE STAGE        kg/ha    LAI   NUM  kg/ha  %   H2O  Nitr Phos1 Phos2  RSTG                                   
 ------  --- ----------   -----  -----  ----  ---  ---  ----  ----  ----  ----  ----                                   
  1 APR    0 Start Sim        0   0.00   0.0    0  0.0  0.00  0.00  0.00  0.00     0
 15 APR    0 Sowing           0   0.00   0.0    0  0.0  0.00  0.00  0.00  0.00     0
 20 APR    5 Emergence       44   0.08   0.2    1  3.4  0.00  0.00  0.00  0.00     0
 20 APR    5 End Juven.      44   0.08   0.2    1  3.4  0.00  0.00  0.00  0.00     0
 23 APR    8 Unifoliate      48   0.09   1.0    2  3.3  0.00  0.65  0.00  0.00     0
 25 APR   10 Flower Ind      56   0.10   1.6    2  3.2  0.00  0.41  0.00  0.00     0
  8 MAY   23 First Flwr     360   0.95   5.5   11  3.0  0.00  0.02  0.00  0.00     1
 11 MAY   26 First Pod      561   1.39   6.4   17  3.0  0.00  0.00  0.00  0.00     3
 18 MAY   33 First Seed    1126   1.72   8.5   35  3.1  0.00  0.00  0.00  0.00     5
 20 MAY   35 End Msnode    1330   1.75   9.0   41  3.0  0.00  0.00  0.00  0.00     5
 25 MAY   40 End Pod       1842   1.64   9.0   55  3.0  0.00  0.00  0.00  0.00     5
 28 MAY   43 End Leaf      2103   1.50   9.0   61  2.9  0.00  0.00  0.00  0.00     5
 30 MAY   45 Phys. Mat     2287   1.40   9.0   66  2.9  0.00  0.00  0.00  0.00     7
  8 JUN   54 Harv. Mat     2137   0.10   9.0   61  2.8  0.00  0.00  0.00  0.00     8
  8 JUN   54 Harvest       2137   0.10   9.0   61  2.8  0.00  0.00  0.00  0.00     8


*MAIN GROWTH AND DEVELOPMENT VARIABLES

@     VARIABLE                                         SIMULATED     MEASURED
      --------                                         ---------     --------
      Anthesis day (dap)                                      23          -99
      First pod day (dap)                                     26          -99
      First seed day (dap)                                    33          -99
      Physiological maturity day (dap)                        45          -99
      Yield at harvest maturity (kg [dm]/ha)                1103          -99
      Pod/Ear/Panicle weight at maturity (kg [dm]/ha)       1708          -99
      Number at maturity (no/m2)                             378          -99
      Unit wt at maturity (g [dm]/unit)                   0.2919          -99
      Number at maturity (no/unit)                          3.50          -99
      Tops weight at maturity (kg [dm]/ha)                  2137          -99
      By-product produced (stalk) at maturity (kg[dm]/ha    1030          -99
      Leaf area index, maximum                              1.75          -99
      Harvest index at maturity                            0.516          -99
      Threshing % at maturity                              64.57          -99
      Grain N at maturity (kg/ha)                             42          -99
      Tops N at maturity (kg/ha)                              61          -99
      Stem N at maturity (kg/ha)                               5          -99
      Grain N at maturity (%)                               3.84          -99
      Tops weight at anthesis (kg [dm]/ha)                   360          -99
      Tops N at anthesis (kg/ha)                              11          -99
      Leaf number per stem at maturity                      9.04          -99
      Grain oil at maturity (%)                             2.76          -99
      Canopy height (m)                                     0.69          -99
      Harvest maturity day (dap)                              54          -99
      Emergence day (dap)                                      5          -99


*ENVIRONMENTAL AND STRESS FACTORS

 |-----Development Phase------|--------------------------------------Environment--------------------------------------|-----------------Stress-----------------|
                              |---------------Average--------------|-----Cumulative-----|--------Count of days--------|          (0=Min, 1=Max Stress)         |
                         Time  Temp  Temp  Temp Solar Photop                Evapo    Pot TMIN TMIN TMAX TMAX TMAX RAIN|----Water----|---Nitrogen--|-Phosphorus-|
                         Span   Max   Min  Mean   Rad  [day]    CO2   Rain  Trans     ET   <    <    >    >    >    >   Photo         Photo         Photo
                         days    øC    øC    øC MJ/m2     hr    ppm     mm     mm     mm  0øC  2øC 30øC 32øC 34øC  0mm  synth Growth  synth Growth  synth Growth
----------------------------------------------------------------------------------------------------------------------------------------------------------------
 Emergence -First Flower   18  29.0  19.2  24.1  18.3  12.12  351.0   68.8    0.0    0.0    0    0    3    0    0    8  0.000  0.000  0.000  0.170  0.000  0.000
 First Flower-First Seed   10  29.6  19.5  24.6  18.2  12.16  351.1   16.3    0.0    0.0    0    0    5    0    0    3  0.000  0.000  0.000  0.000  0.000  0.000
 First Seed - Phys. Mat.   12  28.8  19.1  24.0  17.6  12.18  351.2   85.9    0.0    0.0    0    0    2    0    0    6  0.000  0.000  0.000  0.000  0.000  0.000
 Emergence  - Phys. Mat.   40  29.1  19.3  24.2  18.1  12.15  351.1  171.0    0.0    0.0    0    0   10    0    0   17  0.000  0.000  0.000  0.076  0.000  0.000


 Planting to Harvest       68  29.3  19.3  24.3  18.3  12.13  351.1  343.9    0.0    0.0    0    0   24    5    1   33  0.000  0.000  0.000  0.045  0.000  0.000
----------------------------------------------------------------------------------------------------------------------------------------------------------------

--------------------------------------------------------------------------------------------------------------

                  Dry bean YIELD :     1103 kg/ha    [Dry weight] 

**************************************************************************************************************

*DSSAT Cropping System Model Ver. 4.6.1.000 -release      JUL 11, 2017; 16:24:41
                                                                                
*RUN  10        : SIM                       CRGRO046 0\000000    1              
 MODEL          : CRGRO046 - Dry bean                                           
 EXPERIMENT     : 0\000000 BN PALMIRA_ANALISIS SENSIBILIDAD                     
 DATA PATH      : D:\B\0\00000                                                  
 TREATMENT  1   : SIM                       CRGRO046                            
[...]
      Emergence day (dap)                                      5          -99


*ENVIRONMENTAL AND STRESS FACTORS

 |-----Development Phase------|--------------------------------------Environment--------------------------------------|-----------------Stress-----------------|
                              |---------------Average--------------|-----Cumulative-----|--------Count of days--------|          (0=Min, 1=Max Stress)         |
                         Time  Temp  Temp  Temp Solar Photop                Evapo    Pot TMIN TMIN TMAX TMAX TMAX RAIN|----Water----|---Nitrogen--|-Phosphorus-|
                         Span   Max   Min  Mean   Rad  [day]    CO2   Rain  Trans     ET   <    <    >    >    >    >   Photo         Photo         Photo
                         days    øC    øC    øC MJ/m2     hr    ppm     mm     mm     mm  0øC  2øC 30øC 32øC 34øC  0mm  synth Growth  synth Growth  synth Growth
----------------------------------------------------------------------------------------------------------------------------------------------------------------
 Emergence -First Flower   18  30.3  19.1  24.7  19.6  12.12  386.9   43.8    0.0    0.0    0    0   13    2    0   11  0.000  0.000  0.000  0.156  0.000  0.000
 First Flower-First Seed   10  30.8  18.9  24.8  19.8  12.16  387.0    8.9    0.0    0.0    0    0    8    0    0    4  0.000  0.000  0.000  0.000  0.000  0.000
 First Seed - Phys. Mat.   12  30.4  19.1  24.8  19.1  12.18  387.1    0.2    0.0    0.0    0    0    8    0    0    1  0.000  0.000  0.000  0.000  0.000  0.000
 Emergence  - Phys. Mat.   40  30.5  19.0  24.7  19.5  12.15  387.0   52.9    0.0    0.0    0    0   29    2    0   16  0.000  0.000  0.000  0.070  0.000  0.000


 Planting to Harvest       68  30.3  19.1  24.7  19.4  12.13  387.0  102.4    0.0    0.0    0    0   43    5    0   29  0.000  0.000  0.000  0.041  0.000  0.000
----------------------------------------------------------------------------------------------------------------------------------------------------------------

--------------------------------------------------------------------------------------------------------------

                  Dry bean YIELD :     1208 kg/ha    [Dry weight] 

**************************************************************************************************************

*DSSAT Cropping System Model Ver. 4.6.1.000 -release      JUL 11, 2017; 16:24:41
                                                                                
*RUN  31        : SIM                       CRGRO046 0\000000    1              
 MODEL          : CRGRO046 - Dry bean                                           
 EXPERIMENT     : 0\000000 BN PALMIRA_ANALISIS SENSIBILIDAD                     
 DATA PATH      : D:\B\0\00000                                                  
 TREATMENT  1   : SIM                       CRGRO046                            
                                                                                
                                                                                
 CROP           : Dry bean         CULTIVAR : Jatu Rong        ECOTYPE :ANDIND  
 STARTING DATE  : APR  2 2010                                                   
 PLANTING DATE  : APR 16 2010        PLANTS/m2 : 26.6     ROW SPACING :  60.cm  
 WEATHER        : PALM8034                                                      
 SOIL           : CCPA000030     TEXTURE : C     -   Silty Clay Loam            
 WATER BALANCE  : NOT SIMULATED ; NO H2O-STRESS                                 
 IRRIGATION     :                                                               
 NITROGEN BAL.  : NOT SIMULATED ; NO N-STRESS                                   
 N-FERTILIZER   :                                                               
 RESIDUE/MANURE :                                                               
 ENVIRONM. OPT. : DAYL=    0.00  SRAD=    0.00  TMAX=    0.00  TMIN=    0.00    
                  RAIN=    0.00  CO2 =    0.00  DEW =    0.00  WIND=    0.00    
 SIMULATION OPT : WATER   :N  NITROGEN:N  N-FIX:N  PHOSPH :N  PESTS  :N         
                  PHOTO   :L  ET      :R  INFIL:S  HYDROL :R  SOM    :G         
                  CO2 389ppm  NSWIT   :1  EVAP :S  SOIL   :2  STEMP  :D         
 MANAGEMENT OPT : PLANTING:A  IRRIG   :A  FERT :D  RESIDUE:N  HARVEST:M         
                  WEATHER :M  TILLAGE :N                                        
                                                                                
*SUMMARY OF SOIL AND GENETIC INPUT PARAMETERS                                   
                                                                                
 Dry bean   CULTIVAR :000000-Jatu Rong          ECOTYPE :ANDIND                 
 CSDVAR :12.17  PPSEN  : 0.05  EMG-FLW:17.00  FLW-FSD: 9.00  FSD-PHM : 11.00    
 WTPSD  :0.600  SDPDVR : 3.50  SDFDUR :15.00  PODDUR :10.00  XFRUIT  :  1.00    
 THRESH : 78.0  SDPRO  :0.235  SDLIP   : 0.030                                  


*SIMULATED CROP AND SOIL STATUS AT MAIN DEVELOPMENT STAGES

 RUN NO.    31     SIM                     

        CROP GROWTH     BIOMASS         LEAF   CROP N     STRESS      STRESS                                           
   DATE  AGE STAGE        kg/ha    LAI   NUM  kg/ha  %   H2O  Nitr Phos1 Phos2  RSTG                                   
 ------  --- ----------   -----  -----  ----  ---  ---  ----  ----  ----  ----  ----                                   
  2 APR    0 Start Sim        0   0.00   0.0    0  0.0  0.00  0.00  0.00  0.00     0
 16 APR    0 Sowing           0   0.00   0.0    0  0.0  0.00  0.00  0.00  0.00     0
 21 APR    5 Emergence       44   0.08   0.2    1  3.4  0.00  0.00  0.00  0.00     0
 21 APR    5 End Juven.      44   0.08   0.2    1  3.4  0.00  0.00  0.00  0.00     0
 24 APR    8 Unifoliate      49   0.09   1.1    2  3.3  0.00  0.66  0.00  0.00     0
 26 APR   10 Flower Ind      55   0.10   1.7    2  3.1  0.00  0.45  0.00  0.00     0
  9 MAY   23 First Flwr     403   1.07   5.6   12  3.0  0.00  0.01  0.00  0.00     1
 11 MAY   25 First Pod      548   1.39   6.3   17  3.0  0.00  0.00  0.00  0.00     3
 18 MAY   32 First Seed    1164   1.89   8.5   36  3.1  0.00  0.00  0.00  0.00     5
 20 MAY   34 End Msnode    1389   1.92   9.1   42  3.0  0.00  0.00  0.00  0.00     5
 25 MAY   39 End Pod       1904   1.80   9.1   56  3.0  0.00  0.00  0.00  0.00     5
 28 MAY   42 End Leaf      2189   1.65   9.1   64  2.9  0.00  0.00  0.00  0.00     5
 30 MAY   44 Phys. Mat     2381   1.53   9.1   68  2.9  0.00  0.00  0.00  0.00     7
  8 JUN   53 Harv. Mat     2202   0.10   9.1   62  2.8  0.00  0.00  0.00  0.00     8
  8 JUN   53 Harvest       2202   0.10   9.1   62  2.8  0.00  0.00  0.00  0.00     8


*MAIN GROWTH AND DEVELOPMENT VARIABLES

@     VARIABLE                                         SIMULATED     MEASURED
      --------                                         ---------     --------
      Anthesis day (dap)                                      23          -99
      First pod day (dap)                                     25          -99
      First seed day (dap)                                    32          -99
      Physiological maturity day (dap)                        44          -99
      Yield at harvest maturity (kg [dm]/ha)                1141          -99
      Pod/Ear/Panicle weight at maturity (kg [dm]/ha)       1748          -99
      Number at maturity (no/m2)                             397          -99
      Unit wt at maturity (g [dm]/unit)                   0.2875          -99
      Number at maturity (no/unit)                          3.50          -99
      Tops weight at maturity (kg [dm]/ha)                  2202          -99
      By-product produced (stalk) at maturity (kg[dm]/ha    1060          -99
      Leaf area index, maximum                              1.92          -99
      Harvest index at maturity                            0.518          -99
      Threshing % at maturity                              65.24          -99
      Grain N at maturity (kg/ha)                             43          -99
      Tops N at maturity (kg/ha)                              62          -99
      Stem N at maturity (kg/ha)                               5          -99
      Grain N at maturity (%)                               3.75          -99
      Tops weight at anthesis (kg [dm]/ha)                   403          -99
      Tops N at anthesis (kg/ha)                              12          -99
      Leaf number per stem at maturity                      9.08          -99
      Grain oil at maturity (%)                             2.93          -99
      Canopy height (m)                                     0.70          -99
      Harvest maturity day (dap)                              53          -99
      Emergence day (dap)                                      5          -99


*ENVIRONMENTAL AND STRESS FACTORS

 |-----Development Phase------|--------------------------------------Environment--------------------------------------|-----------------Stress-----------------|
                              |---------------Average--------------|-----Cumulative-----|--------Count of days--------|          (0=Min, 1=Max Stress)         |
                         Time  Temp  Temp  Temp Solar Photop                Evapo    Pot TMIN TMIN TMAX TMAX TMAX RAIN|----Water----|---Nitrogen--|-Phosphorus-|
                         Span   Max   Min  Mean   Rad  [day]    CO2   Rain  Trans     ET   <    <    >    >    >    >   Photo         Photo         Photo
                         days    øC    øC    øC MJ/m2     hr    ppm     mm     mm     mm  0øC  2øC 30øC 32øC 34øC  0mm  synth Growth  synth Growth  synth Growth
----------------------------------------------------------------------------------------------------------------------------------------------------------------
 Emergence -First Flower   18  29.4  20.2  24.8  17.7  12.12  389.4  121.3    0.0    0.0    0    0    8    0    0    9  0.000  0.000  0.000  0.166  0.000  0.000
 First Flower-First Seed    9  31.1  20.9  26.0  18.3  12.16  389.5    3.0    0.0    0.0    0    0    8    1    0    2  0.000  0.000  0.000  0.000  0.000  0.000
 First Seed - Phys. Mat.   12  28.6  20.0  24.3  16.4  12.18  389.6   50.5    0.0    0.0    0    0    6    0    0    7  0.000  0.000  0.000  0.000  0.000  0.000
 Emergence  - Phys. Mat.   39  29.5  20.3  24.9  17.5  12.15  389.5  174.8    0.0    0.0    0    0   22    1    0   18  0.000  0.000  0.000  0.076  0.000  0.000


 Planting to Harvest       67  29.5  20.0  24.7  17.8  12.13  389.4  362.2    0.0    0.0    0    0   36    3    0   37  0.000  0.000  0.000  0.044  0.000  0.000
----------------------------------------------------------------------------------------------------------------------------------------------------------------

--------------------------------------------------------------------------------------------------------------

                  Dry bean YIELD :     1141 kg/ha    [Dry weight] 

**************************************************************************************************************

*DSSAT Cropping System Model Ver. 4.6.1.000 -release      JUL 11, 2017; 16:24:41
                                                                                
*RUN  32        : SIM                       CRGRO046 0\000000    1              
 MODEL          : CRGRO046 - Dry bean                                           
 EXPERIMENT     : 0\000000 BN PALMIRA_ANALISIS SENSIBILIDAD                     
 DATA PATH      : D:\B\0\00000                                                  
 TREATMENT  1   : SIM                       CRGRO046                            
                                                                                
                                                                                
 CROP           : Dry bean         CULTIVAR : Jatu Rong        ECOTYPE :ANDIND  
 STARTING DATE  : APR  2 2011                                                   
 PLANTING DATE  : APR 16 2011        PLANTS/m2 : 26.6     ROW SPACING :  60.cm  
 WEATHER        : PALM8034                                                      
 SOIL           : CCPA000030     TEXTURE : C     -   Silty Clay Loam            
 WATER BALANCE  : NOT SIMULATED ; NO H2O-STRESS                                 
 IRRIGATION     :                                                               
 NITROGEN BAL.  : NOT SIMULATED ; NO N-STRESS                                   
 N-FERTILIZER   :                                                               
 RESIDUE/MANURE :                                                               
 ENVIRONM. OPT. : DAYL=    0.00  SRAD=    0.00  TMAX=    0.00  TMIN=    0.00    
                  RAIN=    0.00  CO2 =    0.00  DEW =    0.00  WIND=    0.00    
 SIMULATION OPT : WATER   :N  NITROGEN:N  N-FIX:N  PHOSPH :N  PESTS  :N         
                  PHOTO   :L  ET      :R  INFIL:S  HYDROL :R  SOM    :G         
                  CO2 391ppm  NSWIT   :1  EVAP :S  SOIL   :2  STEMP  :D         
 MANAGEMENT OPT : PLANTING:A  IRRIG   :A  FERT :D  RESIDUE:N  HARVEST:M         
                  WEATHER :M  TILLAGE :N                                        
                                                                                
*SUMMARY OF SOIL AND GENETIC INPUT PARAMETERS                                   
                                                                                
 Dry bean   CULTIVAR :000000-Jatu Rong          ECOTYPE :ANDIND                 
 CSDVAR :12.17  PPSEN  : 0.05  EMG-FLW:17.00  FLW-FSD: 9.00  FSD-PHM : 11.00    
 WTPSD  :0.600  SDPDVR : 3.50  SDFDUR :15.00  PODDUR :10.00  XFRUIT  :  1.00    
 THRESH : 78.0  SDPRO  :0.235  SDLIP   : 0.030                                  


*SIMULATED CROP AND SOIL STATUS AT MAIN DEVELOPMENT STAGES

 RUN NO.    32     SIM                     

        CROP GROWTH     BIOMASS         LEAF   CROP N     STRESS      STRESS                                           
   DATE  AGE STAGE        kg/ha    LAI   NUM  kg/ha  %   H2O  Nitr Phos1 Phos2  RSTG                                   
 ------  --- ----------   -----  -----  ----  ---  ---  ----  ----  ----  ----  ----                                   
  2 APR    0 Start Sim        0   0.00   0.0    0  0.0  0.00  0.00  0.00  0.00     0
 16 APR    0 Sowing           0   0.00   0.0    0  0.0  0.00  0.00  0.00  0.00     0
 21 APR    5 Emergence       44   0.08   0.2    1  3.4  0.00  0.00  0.00  0.00     0
 21 APR    5 End Juven.      44   0.08   0.2    1  3.4  0.00  0.00  0.00  0.00     0
 24 APR    8 Unifoliate      49   0.09   1.1    2  3.3  0.00  0.64  0.00  0.00     0
 26 APR   10 Flower Ind      57   0.10   1.7    2  3.1  0.00  0.39  0.00  0.00     0
  9 MAY   23 First Flwr     406   1.06   5.6   12  3.0  0.00  0.01  0.00  0.00     1
 11 MAY   25 First Pod      550   1.38   6.2   17  3.0  0.00  0.00  0.00  0.00     3
 19 MAY   33 First Seed    1276   1.90   8.6   39  3.1  0.00  0.00  0.00  0.00     5
 21 MAY   35 End Msnode    1513   1.92   9.2   46  3.0  0.00  0.00  0.00  0.00     5
 25 MAY   39 End Pod       1980   1.84   9.2   59  3.0  0.00  0.00  0.00  0.00     5
 28 MAY   42 End Leaf      2300   1.69   9.2   67  2.9  0.00  0.00  0.00  0.00     5
 31 MAY   45 Phys. Mat     2607   1.53   9.2   75  2.9  0.00  0.00  0.00  0.00     7
  9 JUN   54 Harv. Mat     2416   0.10   9.2   68  2.8  0.00  0.00  0.00  0.00     8
  9 JUN   54 Harvest       2416   0.10   9.2   68  2.8  0.00  0.00  0.00  0.00     8


*MAIN GROWTH AND DEVELOPMENT VARIABLES

@     VARIABLE                                         SIMULATED     MEASURED
      --------                                         ---------     --------
      Anthesis day (dap)                                      23          -99
      First pod day (dap)                                     25          -99
      First seed day (dap)                                    33          -99
      Physiological maturity day (dap)                        45          -99
      Yield at harvest maturity (kg [dm]/ha)                1237          -99
      Pod/Ear/Panicle weight at maturity (kg [dm]/ha)       1927          -99
      Number at maturity (no/m2)                             451          -99
      Unit wt at maturity (g [dm]/unit)                   0.2744          -99
      Number at maturity (no/unit)                          3.50          -99
      Tops weight at maturity (kg [dm]/ha)                  2416          -99
      By-product produced (stalk) at maturity (kg[dm]/ha    1180          -99
      Leaf area index, maximum                              1.92          -99
      Harvest index at maturity                            0.512          -99
      Threshing % at maturity                              64.20          -99
      Grain N at maturity (kg/ha)                             47          -99
      Tops N at maturity (kg/ha)                              68          -99
      Stem N at maturity (kg/ha)                               5          -99
      Grain N at maturity (%)                               3.78          -99
      Tops weight at anthesis (kg [dm]/ha)                   406          -99
      Tops N at anthesis (kg/ha)                              12          -99
      Leaf number per stem at maturity                      9.15          -99
      Grain oil at maturity (%)                             2.90          -99
      Canopy height (m)                                     0.70          -99
      Harvest maturity day (dap)                              54          -99
      Emergence day (dap)                                      5          -99


*ENVIRONMENTAL AND STRESS FACTORS

 |-----Development Phase------|--------------------------------------Environment--------------------------------------|-----------------Stress-----------------|
                              |---------------Average--------------|-----Cumulative-----|--------Count of days--------|          (0=Min, 1=Max Stress)         |
                         Time  Temp  Temp  Temp Solar Photop                Evapo    Pot TMIN TMIN TMAX TMAX TMAX RAIN|----Water----|---Nitrogen--|-Phosphorus-|
                         Span   Max   Min  Mean   Rad  [day]    CO2   Rain  Trans     ET   <    <    >    >    >    >   Photo         Photo         Photo
                         days    øC    øC    øC MJ/m2     hr    ppm     mm     mm     mm  0øC  2øC 30øC 32øC 34øC  0mm  synth Growth  synth Growth  synth Growth
----------------------------------------------------------------------------------------------------------------------------------------------------------------
 Emergence -First Flower   18  30.1  19.5  24.8  19.1  12.12  391.2   61.5    0.0    0.0    0    0   10    0    0   10  0.000  0.000  0.000  0.158  0.000  0.000
 First Flower-First Seed   10  29.7  19.3  24.5  18.4  12.16  391.3   22.8    0.0    0.0    0    0    4    1    0    5  0.000  0.000  0.000  0.000  0.000  0.000
 First Seed - Phys. Mat.   12  30.3  19.0  24.7  19.1  12.18  391.4    4.0    0.0    0.0    0    0    8    0    0    5  0.000  0.000  0.000  0.000  0.000  0.000
 Emergence  - Phys. Mat.   40  30.1  19.3  24.7  18.9  12.15  391.3   88.3    0.0    0.0    0    0   22    1    0   20  0.000  0.000  0.000  0.071  0.000  0.000


 Planting to Harvest       68  29.6  19.3  24.5  18.6  12.13  391.2  270.5    0.0    0.0    0    0   31    1    0   40  0.000  0.000  0.000  0.042  0.000  0.000
----------------------------------------------------------------------------------------------------------------------------------------------------------------

--------------------------------------------------------------------------------------------------------------

                  Dry bean YIELD :     1237 kg/ha    [Dry weight] 

**************************************************************************************************************
