*GROWTH ASPECTS OUTPUT FILE

*DSSAT Cropping System Model Ver. 4.6.1.000 -release      JUL 11, 2017; 16:24:41
                                                                                
*RUN   1        : SIM                       CRGRO046 0\000000    1              
 MODEL          : CRGRO046 - Dry bean                                           
 EXPERIMENT     : 0\000000 BN PALMIRA_ANALISIS SENSIBILIDAD                     
 DATA PATH      : D:\B\0\00000                                                  
 TREATMENT  1   : SIM                       CRGRO046                            
  
!                                                                                                                                                                                                                                                    Root Dens. (cm/cm3) by soil depth (cm):
!                                                                                                                                                                                                                                                    0-5    5-15   15-25   25-35   35-50   50-65   65-80   80-99  99-122 122-209
@YEAR DOY   DAS   DAP   L#SD   GSTD   LAID   LWAD   SWAD   GWAD   RWAD   VWAD   CWAD   G#AD    GWGD   HIAD   PWAD   P#AD   WSPD   WSGD   NSTD  PST1A  PST2A   KSTD   EWSD    LN%D   SH%D   HIPD   PWDD   PWTD   SLAD   CHTD   CWID   NWAD   RDPD    RL1D    RL2D    RL3D    RL4D    RL5D    RL6D    RL7D    RL8D    RL9D   RL10D    SNW0C   SNW1C
 1980 106    15     0    0.0      0  0.000      0      0      0      0      0      0      0     0.0  0.000      0      0  0.000  0.000  0.000  0.000  0.000  0.000  0.000    0.00   0.00   0.00      0      0    0.0   0.00   0.00    0.0   0.00    0.00    0.00    0.00    0.00    0.00    0.00    0.00    0.00    0.00    0.00        0       0
 1980 107    16     1    0.0      0  0.000      0      0      0      0      0      0      0     0.0  0.000      0      0  0.000  0.000  0.000  0.000  0.000  0.000  0.000    0.00   0.00   0.00      0      0    0.0   0.00   0.00    0.0   0.00    0.00    0.00    0.00    0.00    0.00    0.00    0.00    0.00    0.00    0.00        0       0
 1980 108    17     2    0.0      0  0.000      0      0      0      0      0      0      0     0.0  0.000      0      0  0.000  0.000  0.000  0.000  0.000  0.000  0.000    0.00   0.00   0.00      0      0    0.0   0.00   0.00    0.0   0.00    0.00    0.00    0.00    0.00    0.00    0.00    0.00    0.00    0.00    0.00        0       0
 1980 109    18     3    0.0      0  0.000      0      0      0      0      0      0      0     0.0  0.000      0      0  0.000  0.000  0.000  0.000  0.000  0.000  0.000    0.00   0.00   0.00      0      0    0.0   0.00   0.00    0.0   0.00    0.00    0.00    0.00    0.00    0.00    0.00    0.00    0.00    0.00    0.00        0       0
 1980 110    19     4    0.0      0  0.000      0      0      0      0      0      0      0     0.0  0.000      0      0  0.000  0.000  0.000  0.000  0.000  0.000  0.000    0.00   0.00   0.00      0      0    0.0   0.00   0.00    0.0   0.00    0.00    0.00    0.00    0.00    0.00    0.00    0.00    0.00    0.00    0.00        0       0
 1980 111    20     5    0.2      0  0.079     31     13      0     43     44     44      0     0.0  0.000      0      0  0.000  0.000  0.000  0.000  0.000  0.000  0.000    3.84   0.00   0.00      0      0  256.8   0.04   0.03    0.0   0.27    0.15    0.15    0.15    0.00    0.00    0.00    0.00    0.00    0.00    0.00        0       1
 1980 112    21     6    0.5      0  0.082     31     14      0     50     45     45      0     0.0  0.000      0      0  0.000  0.000  0.646  0.000  0.000  0.000  0.000    3.78   0.00   0.00      0      0  261.8   0.05   0.03    0.0   0.29    0.18    0.18    0.17    0.01    0.00    0.00    0.00    0.00    0.00    0.00        0       2
 1980 113    22     7    0.8      0  0.085     32     15      0     59     47     47      0     0.0  0.000      0      0  0.000  0.000  0.737  0.000  0.000  0.000  0.000    3.72   0.00   0.00      0      0  265.6   0.07   0.04    0.0   0.32    0.21    0.21    0.20    0.02    0.00    0.00    0.00    0.00    0.00    0.00        0       3
 1980 114    23     8    1.1      0  0.088     33     16      0     67     49     49      0     0.0  0.000      0      0  0.000  0.000  0.546  0.000  0.000  0.000  0.000    3.71   0.00   0.00      0      0  271.5   0.08   0.05    0.0   0.34    0.24    0.24    0.21    0.03    0.00    0.00    0.00    0.00    0.00    0.00        0       4
 1980 115    24     9    1.4      0  0.092     33     18      0     74     51     51      0     0.0  0.000      0      0  0.000  0.000  0.519  0.000  0.000  0.000  0.000    3.68   0.00   0.00      0      0  278.2   0.09   0.05    0.0   0.36    0.26    0.26    0.23    0.05    0.00    0.00    0.00    0.00    0.00    0.00        1       6
 1980 116    25    10    1.7      0  0.098     34     22      0     79     56     56      0     0.0  0.000      0      0  0.000  0.000  0.303  0.000  0.000  0.000  0.000    3.66   0.00   0.00      0      0  285.5   0.10   0.06    0.0   0.38    0.28    0.28    0.24    0.06    0.00    0.00    0.00    0.00    0.00    0.00        1       7
 1980 117    26    11    2.0      0  0.114     37     25      0     82     62     62      0     0.0  0.000      0      0  0.000  0.000  0.204  0.000  0.000  0.000  0.000    3.63   0.00   0.00      0      0  308.2   0.11   0.07    0.0   0.40    0.28    0.28    0.25    0.06    0.00    0.00    0.00    0.00    0.00    0.00        2       9
 1980 118    27    12    2.3      0  0.141     44     28      0     82     72     72      0     0.0  0.000      0      0  0.000  0.000  0.000  0.000  0.000  0.000  0.000    3.61   0.00   0.00      0      0  323.5   0.11   0.08    0.0   0.42    0.29    0.29    0.25    0.06    0.00    0.00    0.00    0.00    0.00    0.00        2      11
 1980 119    28    13    2.6      0  0.168     49     34      0     84     83     83      0     0.0  0.000      0      0  0.000  0.000  0.000  0.000  0.000  0.000  0.000    3.56   0.00   0.00      0      0  339.2   0.12   0.08    0.0   0.44    0.29    0.29    0.25    0.07    0.01    0.00    0.00    0.00    0.00    0.00        3      12
 1980 120    29    14    2.9      0  0.206     57     39      0     85     96     96      0     0.0  0.000      0      0  0.000  0.000  0.000  0.000  0.000  0.000  0.000    3.53   0.00   0.00      0      0  358.4   0.13   0.09    0.0   0.46    0.29    0.29    0.25    0.07    0.01    0.00    0.00    0.00    0.00    0.00        3      14
 1980 121    30    15    3.2      0  0.258     70     42      0     85    113    113      0     0.0  0.000      0      0  0.000  0.000  0.000  0.000  0.000  0.000  0.000    3.53   0.00   0.00      0      0  367.5   0.14   0.10    0.0   0.49    0.29    0.29    0.25    0.07    0.01    0.00    0.00    0.00    0.00    0.00        4      16
 1980 122    31    16    3.5      0  0.313     81     49      0     86    131    131      0     0.0  0.000      0      0  0.000  0.000  0.000  0.000  0.000  0.000  0.000    3.52   0.00   0.00      0      0  385.3   0.15   0.12    0.0   0.51    0.29    0.29    0.25    0.07    0.01    0.00    0.00    0.00    0.00    0.00        5      18
 1980 123    32    17    3.8      0  0.365     93     59      0     88    152    152      0     0.0  0.000      0      0  0.000  0.000  0.000  0.000  0.000  0.000  0.000    3.52   0.00   0.00      0      0  390.6   0.16   0.14    0.0   0.53    0.30    0.30    0.25    0.08    0.02    0.00    0.00    0.00    0.00    0.00        5      19
 1980 124    33    18    4.1      0  0.417    105     72      0     90    177    177      0     0.0  0.000      0      0  0.000  0.000  0.000  0.000  0.000  0.000  0.000    3.51   0.00   0.00      0      0  395.5   0.17   0.16    0.0   0.54    0.30    0.30    0.26    0.08    0.02    0.00    0.00    0.00    0.00    0.00        6      21
 1980 125    34    19    4.4      0  0.493    122     83      0     92    206    206      0     0.0  0.000      0      0  0.000  0.000  0.000  0.000  0.000  0.000  0.000    3.52   0.00   0.00      0      0  402.4   0.19   0.18    0.0   0.56    0.31    0.31    0.26    0.09    0.02    0.00    0.00    0.00    0.00    0.00        8      23
 1980 126    35    20    4.7      0  0.604    148     92      0     93    240    240      0     0.0  0.000      0      0  0.000  0.000  0.000  0.000  0.000  0.000  0.000    3.54   0.00   0.00      0      0  407.6   0.20   0.20    0.0   0.58    0.31    0.31    0.26    0.09    0.03    0.00    0.00    0.00    0.00    0.00        9      25
 1980 127    36    21    5.0      0  0.739    178    102      0     94    280    280      0     0.0  0.000      0      0  0.000  0.000  0.000  0.000  0.000  0.000  0.000    3.55   0.00   0.00      0      0  416.4   0.22   0.22    0.0   0.60    0.31    0.31    0.26    0.09    0.03    0.00    0.00    0.00    0.00    0.00       11      27
 1980 128    37    22    5.3      0  0.869    207    120      0     98    327    327      0     0.0  0.000      0      0  0.000  0.000  0.000  0.000  0.000  0.000  0.000    3.56   0.00   0.00      0      0  419.2   0.24   0.25    0.0   0.62    0.32    0.32    0.27    0.10    0.03    0.01    0.00    0.00    0.00    0.00       13      29
 1980 129    38    23    5.6      1  1.014    240    141      0    102    381    381      0     0.0  0.000      0      0  0.000  0.000  0.000  0.000  0.000  0.000  0.000    3.56   0.00   0.00      0      0  422.1   0.26   0.27    0.0   0.64    0.33    0.33    0.27    0.10    0.04    0.01    0.00    0.00    0.00    0.00       15      31
 1980 130    39    24    5.9      1  1.150    276    166      0    107    442    442      0     0.0  0.000      0      0  0.000  0.000  0.000  0.000  0.000  0.000  0.000    3.57   0.00   0.00      0      0  416.2   0.28   0.29    0.0   0.65    0.34    0.34    0.28    0.11    0.04    0.01    0.00    0.00    0.00    0.00       18      33
 1980 131    40    25    6.2      1  1.300    316    196      0    113    512    512      0     0.0  0.000      0      0  0.000  0.000  0.000  0.000  0.000  0.000  0.000    3.57   0.00   0.00      0      0  411.2   0.31   0.31    0.0   0.67    0.35    0.35    0.29    0.12    0.05    0.02    0.00    0.00    0.00    0.00       21      36
 1980 132    41    26    6.5      3  1.432    356    230      0    119    586    586      0     0.0  0.000      0      0  0.000  0.000  0.000  0.000  0.000  0.000  0.000    3.60   0.00   0.00      0      0  401.7   0.34   0.33    0.0   0.69    0.37    0.37    0.30    0.12    0.06    0.02    0.00    0.00    0.00    0.00       29      38
 1980 133    42    27    6.8      3  1.535    391    266      0    126    658    659      0     0.0  0.000      2      2  0.000  0.000  0.000  0.000  0.000  0.000  0.000    3.66   0.00   0.00      0      2  392.4   0.37   0.36    0.0   0.71    0.38    0.38    0.31    0.13    0.06    0.02    0.00    0.00    0.00    0.00       46      41
 1980 134    43    28    7.1      3  1.620    415    297      0    131    712    722      0     0.0  0.000      9      9  0.000  0.000  0.000  0.000  0.000  0.000  0.000    3.71   0.00   0.01      0      9  390.3   0.40   0.38    0.0   0.72    0.39    0.39    0.32    0.14    0.07    0.03    0.00    0.00    0.00    0.00       65      44
 1980 135    44    29    7.4      3  1.682    441    333      0    137    773    796      0     0.0  0.000     23     16  0.000  0.000  0.000  0.000  0.000  0.000  0.000    3.76   0.00   0.03      0     23  381.9   0.43   0.40    0.0   0.74    0.41    0.41    0.33    0.15    0.07    0.03    0.01    0.00    0.00    0.00       85      46
 1980 136    45    30    7.7      3  1.717    460    367      0    142    827    870      0     0.0  0.000     43     24  0.000  0.000  0.000  0.000  0.000  0.000  0.000    3.81   0.00   0.05      0     43  373.0   0.46   0.42    0.0   0.76    0.42    0.42    0.34    0.16    0.08    0.04    0.01    0.00    0.00    0.00      108      49
 1980 137    46    31    7.9      3  1.729    479    404      0    148    883    953      0     0.0  0.000     70     32  0.000  0.000  0.000  0.000  0.000  0.000  0.000    3.87   0.00   0.07      0     70  360.7   0.49   0.44    0.0   0.77    0.43    0.43    0.34    0.16    0.09    0.04    0.01    0.00    0.00    0.00      133      52
 1980 138    47    32    8.2      3  1.758    503    443      0    153    946   1050      0     0.0  0.000    104     41  0.000  0.000  0.000  0.000  0.000  0.000  0.000    3.87   0.00   0.10      0    104  349.5   0.52   0.46    0.0   0.79    0.44    0.44    0.35    0.17    0.09    0.04    0.01    0.00    0.00    0.00      147      55
 1980 139    48    33    8.5      5  1.785    526    481      0    157   1007   1152      0     0.0  0.000    145     50  0.000  0.000  0.000  0.000  0.000  0.000  0.000    3.85   0.00   0.13      0    145  339.3   0.55   0.48    0.0   0.81    0.45    0.45    0.36    0.17    0.09    0.04    0.02    0.00    0.00    0.00      157      59
 1980 140    49    34    8.8      5  1.801    545    518      0    160   1063   1256      8     0.0  0.000    193     60  0.000  0.000  0.000  0.000  0.000  0.000  0.000    3.83   0.00   0.15      0    193  330.2   0.58   0.50    0.0   0.82    0.46    0.46    0.36    0.18    0.10    0.05    0.02    0.00    0.00    0.00      167      62
 1980 141    50    35    9.1      5  1.810    564    553      3    164   1117   1365     29     9.7  0.002    248     70  0.000  0.000  0.000  0.000  0.000  0.000  0.000    3.81   1.13   0.18      0    248  321.1   0.61   0.52    0.0   0.84    0.46    0.46    0.37    0.18    0.10    0.05    0.02    0.00    0.00    0.00      178      65
 1980 142    51    36    9.1      5  1.806    573    579     14    165   1153   1468     52    26.8  0.010    315     79  0.000  0.000  0.000  0.000  0.000  0.000  0.000    3.78   4.45   0.21      0    315  314.9   0.64   0.54    0.0   0.86    0.46    0.46    0.37    0.18    0.10    0.05    0.02    0.00    0.00    0.00      189      69
 1980 143    52    37    9.1      5  1.792    579    602     34    165   1182   1573     79    42.9  0.022    392     89  0.000  0.000  0.000  0.000  0.000  0.000  0.000    3.76   8.69   0.25      0    392  309.3   0.67   0.56    0.0   0.87    0.46    0.46    0.37    0.19    0.11    0.05    0.02    0.00    0.00    0.00      201      72
 1980 144    53    38    9.1      5  1.764    578    617     64    165   1195   1671    137    47.2  0.039    477     98  0.000  0.000  0.000  0.000  0.000  0.000  0.000    3.70  13.51   0.29      0    477  305.1   0.71   0.58    0.0   0.89    0.46    0.46    0.36    0.19    0.11    0.05    0.02    0.00    0.00    0.00      217      76
 1980 145    54    39    9.1      5  1.725    566    614    117    162   1181   1769    167    70.2  0.066    588    108  0.000  0.000  0.000  0.000  0.000  0.000  0.000    3.64  19.92   0.33      0    588  304.5   0.71   0.58    0.0   0.91    0.45    0.45    0.36    0.18    0.10    0.05    0.02    0.00    0.00    0.00      231      80
 1980 146    55    40    9.1      5  1.682    552    608    180    159   1161   1868    198    90.7  0.096    708    118  0.000  0.000  0.000  0.000  0.000  0.000  0.000    3.58  25.41   0.38      0    708  304.6   0.71   0.58    0.0   0.92    0.45    0.45    0.35    0.18    0.10    0.05    0.02    0.00    0.00    0.00      246      83
 1980 147    56    41    9.1      5  1.638    535    598    257    155   1133   1963    231   111.2  0.131    830    125  0.000  0.000  0.000  0.000  0.000  0.000  0.000    3.51  30.97   0.42      0    830  305.9   0.71   0.58    0.0   0.92    0.44    0.44    0.34    0.18    0.10    0.05    0.02    0.00    0.00    0.00      262      86
 1980 148    57    42    9.1      5  1.588    517    586    347    151   1103   2057    264   131.3  0.169    954    131  0.000  0.000  0.000  0.000  0.000  0.000  0.000    3.43  36.34   0.46      0    954  307.3   0.71   0.58    0.0   0.92    0.43    0.43    0.34    0.17    0.10    0.05    0.02    0.00    0.00    0.00      278      90
 1980 149    58    43    9.1      5  1.536    498    574    447    148   1072   2149    298   150.2  0.208   1077    134  0.000  0.000  0.000  0.000  0.000  0.000  0.000    3.34  41.56   0.50      0   1077  308.7   0.71   0.58    0.0   0.94    0.42    0.42    0.33    0.17    0.10    0.05    0.02    0.00    0.00    0.00      295      93
 1980 150    59    44    9.1      5  1.483    478    563    562    144   1041   2242    332   169.1  0.251   1201    136  0.000  0.000  0.000  0.000  0.000  0.000  0.000    3.23  46.78   0.54      0   1201  310.1   0.71   0.58    0.0   0.96    0.41    0.41    0.32    0.16    0.09    0.05    0.02    0.00    0.00    0.00      312      96
 1980 151    60    45    9.1      7  1.432    460    553    689    141   1013   2326    363   189.7  0.296   1314    135  0.000  0.000  0.000  0.000  0.000  0.000  0.000    3.13  52.44   0.56      0   1314  311.4   0.71   0.58    0.0   0.96    0.40    0.40    0.32    0.16    0.09    0.04    0.02    0.00    0.00    0.00      332      99
 1980 152    61    46    9.1      7  1.058    338    512    818    137    850   2276    372   220.0  0.359   1427    127  0.000  0.000  0.000  0.000  0.000  0.000  0.000    2.94  57.33   0.63      0   1427  312.9   0.71   0.58    0.0   0.96    0.39    0.39    0.31    0.16    0.09    0.04    0.02    0.00    0.00    0.00      490     102
 1980 153    62    47    9.1      7  0.782    249    481    911    134    730   2243    372   244.9  0.406   1513    127  0.000  0.000  0.000  0.000  0.000  0.000  0.000    2.77  60.17   0.67      0   1513  314.4   0.71   0.58    0.0   0.96    0.38    0.38    0.30    0.15    0.09    0.04    0.02    0.00    0.00    0.00      600     105
 1980 154    63    48    9.1      7  0.581    184    458    977    132    642   2217    372   262.7  0.441   1574    119  0.000  0.000  0.000  0.000  0.000  0.000  0.000    2.64  62.03   0.71      0   1574  315.8   0.71   0.58    0.0   0.96    0.38    0.38    0.30    0.15    0.09    0.04    0.02    0.00    0.00    0.00      681     107
 1980 155    64    49    9.1      7  0.430    136    440   1036    129    576   2204    372   278.6  0.470   1628    113  0.000  0.000  0.000  0.000  0.000  0.000  0.000    2.50  63.60   0.74      0   1628  317.2   0.71   0.58    0.0   0.96    0.37    0.37    0.29    0.15    0.08    0.04    0.02    0.00    0.00    0.00      741     110
 1980 156    65    50    9.1      7  0.319    100    426   1080    126    526   2194    372   290.4  0.492   1667    109  0.000  0.000  0.000  0.000  0.000  0.000  0.000    2.36  64.76   0.76      0   1667  318.8   0.71   0.58    0.0   0.96    0.36    0.36    0.29    0.15    0.08    0.04    0.02    0.00    0.00    0.00      785     113
 1980 157    66    51    9.1      7  0.237     74    415   1112    123    489   2184    372   299.2  0.509   1695    107  0.000  0.000  0.000  0.000  0.000  0.000  0.000    2.24  65.61   0.78      0   1695  320.2   0.71   0.58    0.0   0.96    0.35    0.35    0.28    0.14    0.08    0.04    0.02    0.00    0.00    0.00      818     115
 1980 158    67    52    9.1      7  0.176     55    406   1136    121    460   2175    372   305.5  0.522   1714    106  0.000  0.000  0.000  0.000  0.000  0.000  0.000    2.13  66.26   0.79      0   1714  321.7   0.71   0.58    0.0   0.96    0.35    0.35    0.27    0.14    0.08    0.04    0.02    0.00    0.00    0.00      842     118
 1980 159    68    53    9.1      7  0.131     41    399   1150    118    439   2165    372   309.5  0.531   1726    106  0.000  0.000  0.000  0.000  0.000  0.000  0.000    2.05  66.67   0.80      0   1726  323.1   0.71   0.58    0.0   0.98    0.34    0.34    0.27    0.14    0.08    0.04    0.02    0.00    0.00    0.00      860     121
 1980 160    69    54    9.1      8  0.098     30    393   1159    115    424   2155    372   311.7  0.538   1732    106  0.000  0.000  0.000  0.000  0.000  0.000  0.000    2.01  66.91   0.80      0   1732  324.4   0.71   0.58    0.0   0.98    0.33    0.33    0.26    0.13    0.08    0.04    0.02    0.00    0.00    0.00      873     123

*DSSAT Cropping System Model Ver. 4.6.1.000 -release      JUL 11, 2017; 16:24:41
                                                                                
*RUN   2        : SIM                       CRGRO046 0\000000    1              
 MODEL          : CRGRO046 - Dry bean                                           
 EXPERIMENT     : 0\000000 BN PALMIRA_ANALISIS SENSIBILIDAD                     
 DATA PATH      : D:\B\0\00000                                                  
 TREATMENT  1   : SIM                       CRGRO046                            
  
!                                                                                                                                                                                                                                                    Root Dens. (cm/cm3) by soil depth (cm):
!                                                                                                                                                                                                                                                    0-5    5-15   15-25   25-35   35-50   50-65   65-80   80-99  99-122 122-209
@YEAR DOY   DAS   DAP   L#SD   GSTD   LAID   LWAD   SWAD   GWAD   RWAD   VWAD   CWAD   G#AD    GWGD   HIAD   PWAD   P#AD   WSPD   WSGD   NSTD  PST1A  PST2A   KSTD   EWSD    LN%D   SH%D   HIPD   PWDD   PWTD   SLAD   CHTD   CWID   NWAD   RDPD    RL1D    RL2D    RL3D    RL4D    RL5D    RL6D    RL7D    RL8D    RL9D   RL10D    SNW0C   SNW1C
 1981 106    15     0    0.0      0  0.000      0      0      0      0      0      0      0     0.0  0.000      0      0  0.000  0.000  0.000  0.000  0.000  0.000  0.000    0.00   0.00   0.00      0      0    0.0   0.00   0.00    0.0   0.00    0.00    0.00    0.00    0.00    0.00    0.00    0.00    0.00    0.00    0.00        0       0
 1981 107    16     1    0.0      0  0.000      0      0      0      0      0      0      0     0.0  0.000      0      0  0.000  0.000  0.000  0.000  0.000  0.000  0.000    0.00   0.00   0.00      0      0    0.0   0.00   0.00    0.0   0.00    0.00    0.00    0.00    0.00    0.00    0.00    0.00    0.00    0.00    0.00        0       0
 1981 108    17     2    0.0      0  0.000      0      0      0      0      0      0      0     0.0  0.000      0      0  0.000  0.000  0.000  0.000  0.000  0.000  0.000    0.00   0.00   0.00      0      0    0.0   0.00   0.00    0.0   0.00    0.00    0.00    0.00    0.00    0.00    0.00    0.00    0.00    0.00    0.00        0       0
 1981 109    18     3    0.0      0  0.000      0      0      0      0      0      0      0     0.0  0.000      0      0  0.000  0.000  0.000  0.000  0.000  0.000  0.000    0.00   0.00   0.00      0      0    0.0   0.00   0.00    0.0   0.00    0.00    0.00    0.00    0.00    0.00    0.00    0.00    0.00    0.00    0.00        0       0
 1981 110    19     4    0.0      0  0.000      0      0      0      0      0      0      0     0.0  0.000      0      0  0.000  0.000  0.000  0.000  0.000  0.000  0.000    0.00   0.00   0.00      0      0    0.0   0.00   0.00    0.0   0.00    0.00    0.00    0.00    0.00    0.00    0.00    0.00    0.00    0.00    0.00        0       0
 1981 111    20     5    0.2      0  0.079     31     13      0     43     44     44      0     0.0  0.000      0      0  0.000  0.000  0.000  0.000  0.000  0.000  0.000    3.84   0.00   0.00      0      0  256.6   0.04   0.03    0.0   0.27    0.15    0.15    0.15    0.00    0.00    0.00    0.00    0.00    0.00    0.00        0       1
 1981 112    21     6    0.5      0  0.082     31     14      0     51     45     45      0     0.0  0.000      0      0  0.000  0.000  0.653  0.000  0.000  0.000  0.000    3.78   0.00   0.00      0      0  261.6   0.05   0.03    0.0   0.29    0.18    0.18    0.18    0.01    0.00    0.00    0.00    0.00    0.00    0.00        0       2
 1981 113    22     7    0.8      0  0.084     32     15      0     59     46     46      0     0.0  0.000      0      0  0.000  0.000  0.742  0.000  0.000  0.000  0.000    3.73   0.00   0.00      0      0  265.1   0.06   0.04    0.0   0.31    0.21    0.21    0.20    0.02    0.00    0.00    0.00    0.00    0.00    0.00        0       3
 1981 114    23     8    1.1      0  0.087     32     16      0     67     48     48      0     0.0  0.000      0      0  0.000  0.000  0.576  0.000  0.000  0.000  0.000    3.71   0.00   0.00      0      0  270.8   0.07   0.04    0.0   0.33    0.24    0.24    0.22    0.03    0.00    0.00    0.00    0.00    0.00    0.00        0       4
 1981 115    24     9    1.3      0  0.091     33     18      0     74     51     51      0     0.0  0.000      0      0  0.000  0.000  0.498  0.000  0.000  0.000  0.000    3.68   0.00   0.00      0      0  276.8   0.08   0.05    0.0   0.36    0.26    0.26    0.23    0.04    0.00    0.00    0.00    0.00    0.00    0.00        1       6
 1981 116    25    10    1.7      0  0.096     34     21      0     80     54     54      0     0.0  0.000      0      0  0.000  0.000  0.437  0.000  0.000  0.000  0.000    3.66   0.00   0.00      0      0  285.0   0.09   0.06    0.0   0.38    0.28    0.28    0.25    0.06    0.00    0.00    0.00    0.00    0.00    0.00        1       7
 1981 117    26    11    1.9      0  0.107     35     23      0     84     59     59      0     0.0  0.000      0      0  0.000  0.000  0.290  0.000  0.000  0.000  0.000    3.64   0.00   0.00      0      0  303.6   0.10   0.07    0.0   0.40    0.29    0.29    0.25    0.06    0.00    0.00    0.00    0.00    0.00    0.00        2       9
 1981 118    27    12    2.2      0  0.129     41     26      0     84     67     67      0     0.0  0.000      0      0  0.000  0.000  0.000  0.000  0.000  0.000  0.000    3.64   0.00   0.00      0      0  314.7   0.11   0.07    0.0   0.42    0.29    0.29    0.25    0.06    0.00    0.00    0.00    0.00    0.00    0.00        2      10
 1981 119    28    13    2.5      0  0.157     47     31      0     85     78     78      0     0.0  0.000      0      0  0.000  0.000  0.000  0.000  0.000  0.000  0.000    3.58   0.00   0.00      0      0  332.8   0.12   0.08    0.0   0.44    0.30    0.30    0.25    0.07    0.01    0.00    0.00    0.00    0.00    0.00        2      12
 1981 120    29    14    2.8      0  0.183     53     37      0     87     90     90      0     0.0  0.000      0      0  0.000  0.000  0.000  0.000  0.000  0.000  0.000    3.55   0.00   0.00      0      0  347.2   0.12   0.09    0.0   0.46    0.30    0.30    0.26    0.07    0.01    0.00    0.00    0.00    0.00    0.00        3      14
 1981 121    30    15    3.1      0  0.236     64     40      0     87    104    104      0     0.0  0.000      0      0  0.000  0.000  0.000  0.000  0.000  0.000  0.000    3.54   0.00   0.00      0      0  367.4   0.13   0.10    0.0   0.48    0.30    0.30    0.26    0.07    0.01    0.00    0.00    0.00    0.00    0.00        4      16
 1981 122    31    16    3.4      0  0.290     76     46      0     87    122    122      0     0.0  0.000      0      0  0.000  0.000  0.000  0.000  0.000  0.000  0.000    3.53   0.00   0.00      0      0  379.3   0.14   0.11    0.0   0.50    0.30    0.30    0.26    0.07    0.01    0.00    0.00    0.00    0.00    0.00        4      17
 1981 123    32    17    3.7      0  0.343     88     54      0     89    142    142      0     0.0  0.000      0      0  0.000  0.000  0.000  0.000  0.000  0.000  0.000    3.52   0.00   0.00      0      0  388.7   0.15   0.13    0.0   0.52    0.30    0.30    0.26    0.08    0.02    0.00    0.00    0.00    0.00    0.00        5      19
 1981 124    33    18    3.9      0  0.394     99     66      0     91    165    165      0     0.0  0.000      0      0  0.000  0.000  0.000  0.000  0.000  0.000  0.000    3.51   0.00   0.00      0      0  397.7   0.17   0.15    0.0   0.54    0.31    0.31    0.26    0.08    0.02    0.00    0.00    0.00    0.00    0.00        6      21
 1981 125    34    19    4.2      0  0.445    110     80      0     94    190    190      0     0.0  0.000      0      0  0.000  0.000  0.000  0.000  0.000  0.000  0.000    3.51   0.00   0.00      0      0  403.5   0.18   0.17    0.0   0.56    0.31    0.31    0.26    0.09    0.02    0.00    0.00    0.00    0.00    0.00        7      23
 1981 126    35    20    4.5      0  0.548    131     87      0     94    218    218      0     0.0  0.000      0      0  0.000  0.000  0.000  0.000  0.000  0.000  0.000    3.53   0.00   0.00      0      0  417.2   0.19   0.19    0.0   0.57    0.31    0.31    0.26    0.09    0.03    0.00    0.00    0.00    0.00    0.00        8      25
 1981 127    36    21    4.8      0  0.670    159     96      0     95    254    254      0     0.0  0.000      0      0  0.000  0.000  0.000  0.000  0.000  0.000  0.000    3.55   0.00   0.00      0      0  421.8   0.21   0.21    0.0   0.59    0.32    0.32    0.26    0.09    0.03    0.00    0.00    0.00    0.00    0.00       10      27
 1981 128    37    22    5.0      0  0.767    181    108      0     98    289    289      0     0.0  0.000      0      0  0.000  0.000  0.000  0.000  0.000  0.000  0.000    3.55   0.00   0.00      0      0  423.7   0.22   0.23    0.0   0.61    0.32    0.32    0.27    0.09    0.03    0.00    0.00    0.00    0.00    0.00       11      28
 1981 129    38    23    5.3      1  0.893    210    126      0    101    336    336      0     0.0  0.000      0      0  0.000  0.000  0.000  0.000  0.000  0.000  0.000    3.56   0.00   0.00      0      0  424.4   0.24   0.24    0.0   0.62    0.33    0.33    0.27    0.10    0.04    0.01    0.00    0.00    0.00    0.00       13      30
 1981 130    39    24    5.6      1  1.032    243    146      0    105    389    389      0     0.0  0.000      0      0  0.000  0.000  0.000  0.000  0.000  0.000  0.000    3.56   0.00   0.00      0      0  425.1   0.26   0.26    0.0   0.64    0.34    0.34    0.28    0.10    0.04    0.01    0.00    0.00    0.00    0.00       16      32
 1981 131    40    25    5.9      1  1.174    279    171      0    110    450    450      0     0.0  0.000      0      0  0.000  0.000  0.000  0.000  0.000  0.000  0.000    3.57   0.00   0.00      0      0  421.3   0.28   0.29    0.0   0.66    0.35    0.35    0.29    0.11    0.05    0.01    0.00    0.00    0.00    0.00       18      35
 1981 132    41    26    6.2      3  1.319    318    201      0    116    520    520      0     0.0  0.000      0      0  0.000  0.000  0.000  0.000  0.000  0.000  0.000    3.58   0.00   0.00      0      0  414.2   0.31   0.31    0.0   0.67    0.36    0.36    0.30    0.12    0.05    0.02    0.00    0.00    0.00    0.00       21      37
 1981 133    42    27    6.5      3  1.449    357    235      0    122    592    594      0     0.0  0.000      2      2  0.000  0.000  0.000  0.000  0.000  0.000  0.000    3.60   0.00   0.00      0      2  405.5   0.33   0.33    0.0   0.69    0.38    0.38    0.31    0.13    0.06    0.02    0.00    0.00    0.00    0.00       29      39
 1981 134    43    28    6.8      3  1.540    388    268      0    128    656    665      0     0.0  0.000      9      8  0.000  0.000  0.000  0.000  0.000  0.000  0.000    3.65   0.00   0.01      0      9  396.6   0.36   0.35    0.0   0.71    0.39    0.39    0.32    0.14    0.06    0.02    0.00    0.00    0.00    0.00       45      42
 1981 135    44    29    7.1      3  1.602    417    302      0    134    719    741      0     0.0  0.000     22     15  0.000  0.000  0.000  0.000  0.000  0.000  0.000    3.71   0.00   0.03      0     22  384.5   0.39   0.37    0.0   0.72    0.40    0.40    0.33    0.14    0.07    0.03    0.00    0.00    0.00    0.00       64      45
 1981 136    45    30    7.3      3  1.648    436    332      0    139    767    809      0     0.0  0.000     41     23  0.000  0.000  0.000  0.000  0.000  0.000  0.000    3.76   0.00   0.05      0     41  378.3   0.42   0.39    0.0   0.74    0.41    0.41    0.33    0.15    0.08    0.03    0.01    0.00    0.00    0.00       84      47
 1981 137    46    31    7.6      3  1.675    455    365      0    144    820    887      0     0.0  0.000     68     31  0.000  0.000  0.000  0.000  0.000  0.000  0.000    3.81   0.00   0.08      0     68  368.3   0.45   0.41    0.0   0.76    0.42    0.42    0.34    0.16    0.08    0.03    0.01    0.00    0.00    0.00      106      50
 1981 138    47    32    7.9      3  1.680    470    397      0    148    867    967      0     0.0  0.000    100     39  0.000  0.000  0.000  0.000  0.000  0.000  0.000    3.86   0.00   0.10      0    100  357.7   0.48   0.44    0.0   0.77    0.43    0.43    0.35    0.16    0.09    0.04    0.01    0.00    0.00    0.00      130      53
 1981 139    48    33    8.2      5  1.701    490    432      0    152    922   1062      0     0.0  0.000    140     48  0.000  0.000  0.000  0.000  0.000  0.000  0.000    3.86   0.00   0.13      0    140  347.1   0.51   0.45    0.0   0.79    0.44    0.44    0.35    0.17    0.09    0.04    0.01    0.00    0.00    0.00      143      56
 1981 140    49    34    8.5      5  1.723    511    467      0    155    977   1163      7     0.0  0.000    186     57  0.000  0.000  0.000  0.000  0.000  0.000  0.000    3.84   0.00   0.16      0    186  337.4   0.54   0.47    0.0   0.81    0.45    0.45    0.36    0.17    0.09    0.04    0.01    0.00    0.00    0.00      153      60
 1981 141    50    35    8.8      5  1.735    527    499      3    158   1026   1264     28     9.2  0.002    238     66  0.000  0.000  0.000  0.000  0.000  0.000  0.000    3.82   1.06   0.19      0    238  329.1   0.57   0.49    0.0   0.82    0.45    0.45    0.36    0.17    0.10    0.04    0.02    0.00    0.00    0.00      164      63
 1981 142    51    36    8.8      5  1.740    541    527     13    160   1068   1369     51    25.2  0.009    300     75  0.000  0.000  0.000  0.000  0.000  0.000  0.000    3.80   4.30   0.22      0    300  321.7   0.60   0.51    0.0   0.84    0.45    0.45    0.36    0.18    0.10    0.05    0.02    0.00    0.00    0.00      174      66
 1981 143    52    37    8.8      5  1.730    546    545     33    160   1090   1467     77    42.9  0.023    376     85  0.000  0.000  0.000  0.000  0.000  0.000  0.000    3.78   8.79   0.26      0    376  317.1   0.63   0.53    0.0   0.86    0.45    0.45    0.36    0.18    0.10    0.05    0.02    0.00    0.00    0.00      184      70
 1981 144    53    38    8.8      5  1.710    545    556     63    159   1101   1565    103    61.5  0.040    463     94  0.000  0.000  0.000  0.000  0.000  0.000  0.000    3.76  13.66   0.30      0    463  313.7   0.66   0.55    0.0   0.87    0.45    0.45    0.36    0.18    0.10    0.05    0.02    0.00    0.00    0.00      195      73
 1981 145    54    39    8.8      5  1.679    538    559    104    157   1097   1658    131    78.8  0.063    561    103  0.000  0.000  0.000  0.000  0.000  0.000  0.000    3.70  18.47   0.34      0    561  312.1   0.66   0.55    0.0   0.89    0.45    0.45    0.35    0.18    0.10    0.05    0.02    0.00    0.00    0.00      207      76
 1981 146    55    40    8.8      5  1.642    526    553    155    154   1078   1750    161    96.3  0.089    671    113  0.000  0.000  0.000  0.000  0.000  0.000  0.000    3.65  23.15   0.38      0    671  312.4   0.66   0.55    0.0   0.90    0.44    0.44    0.35    0.17    0.10    0.05    0.02    0.00    0.00    0.00      219      79
 1981 147    56    41    8.8      5  1.602    511    544    219    151   1054   1841    192   114.0  0.119    786    122  0.000  0.000  0.000  0.000  0.000  0.000  0.000    3.59  27.81   0.43      0    786  313.6   0.66   0.55    0.0   0.90    0.43    0.43    0.34    0.17    0.09    0.05    0.02    0.00    0.00    0.00      232      83
 1981 148    57    42    8.8      5  1.559    495    534    293    147   1029   1934    223   131.7  0.152    905    130  0.000  0.000  0.000  0.000  0.000  0.000  0.000    3.52  32.40   0.47      0    905  314.9   0.66   0.55    0.0   0.90    0.42    0.42    0.33    0.17    0.09    0.04    0.02    0.00    0.00    0.00      246      86
 1981 149    58    43    8.8      5  1.512    478    524    380    144   1002   2023    255   149.2  0.188   1021    135  0.000  0.000  0.000  0.000  0.000  0.000  0.000    3.43  37.23   0.50      0   1021  316.3   0.66   0.55    0.0   0.90    0.41    0.41    0.33    0.16    0.09    0.04    0.02    0.00    0.00    0.00      260      89
 1981 150    59    44    8.8      5  1.465    461    514    479    140    975   2114    288   166.6  0.227   1139    139  0.000  0.000  0.000  0.000  0.000  0.000  0.000    3.35  42.09   0.54      0   1139  317.7   0.66   0.55    0.0   0.90    0.40    0.40    0.32    0.16    0.09    0.04    0.02    0.00    0.00    0.00      273      92
 1981 151    60    45    8.8      5  1.416    444    504    592    137    948   2204    321   184.2  0.268   1256    140  0.000  0.000  0.000  0.000  0.000  0.000  0.000    3.25  47.08   0.57      0   1256  319.1   0.66   0.55    0.0   0.90    0.39    0.39    0.31    0.16    0.09    0.04    0.02    0.00    0.00    0.00      287      95
 1981 152    61    46    8.8      7  1.369    427    495    712    134    922   2288    354   201.3  0.311   1366    140  0.000  0.000  0.000  0.000  0.000  0.000  0.000    3.14  52.13   0.60      0   1366  320.3   0.66   0.55    0.0   0.90    0.38    0.38    0.31    0.15    0.09    0.04    0.02    0.00    0.00    0.00      303      98
 1981 153    62    47    8.8      7  1.010    314    458    831    131    772   2235    373   223.1  0.372   1464    136  0.000  0.000  0.000  0.000  0.000  0.000  0.000    2.95  56.80   0.65      0   1464  321.8   0.66   0.55    0.0   0.90    0.38    0.38    0.30    0.15    0.08    0.04    0.02    0.00    0.00    0.00      456     101
 1981 154    63    48    8.8      7  0.747    231    430    927    128    661   2210    376   246.8  0.420   1549    127  0.000  0.000  0.000  0.000  0.000  0.000  0.000    2.77  59.87   0.70      0   1549  323.1   0.66   0.55    0.0   0.90    0.37    0.37    0.29    0.15    0.08    0.04    0.02    0.00    0.00    0.00      563     103
 1981 155    64    49    8.8      7  0.553    170    408   1001    125    579   2195    376   266.3  0.456   1616    119  0.000  0.000  0.000  0.000  0.000  0.000  0.000    2.61  61.91   0.74      0   1616  324.5   0.66   0.55    0.0   0.90    0.36    0.36    0.29    0.14    0.08    0.04    0.02    0.00    0.00    0.00      638     106
 1981 156    65    50    8.8      7  0.410    126    392   1056    122    518   2184    376   281.0  0.483   1666    113  0.000  0.000  0.000  0.000  0.000  0.000  0.000    2.46  63.37   0.76      0   1666  325.9   0.66   0.55    0.0   0.90    0.35    0.35    0.28    0.14    0.08    0.04    0.02    0.00    0.00    0.00      693     109
 1981 157    66    51    8.8      7  0.304     93    379   1096    119    472   2173    376   291.8  0.504   1701    109  0.000  0.000  0.000  0.000  0.000  0.000  0.000    2.32  64.44   0.78      0   1701  327.4   0.66   0.55    0.0   0.90    0.35    0.35    0.27    0.14    0.08    0.04    0.01    0.00    0.00    0.00      734     111
 1981 158    67    52    8.8      7  0.226     69    369   1124    116    438   2162    376   299.2  0.520   1724    107  0.000  0.000  0.000  0.000  0.000  0.000  0.000    2.20  65.19   0.80      0   1724  328.9   0.66   0.55    0.0   0.90    0.34    0.34    0.27    0.13    0.08    0.04    0.01    0.00    0.00    0.00      764     114
 1981 159    68    53    8.8      7  0.168     51    361   1144    114    412   2152    376   304.5  0.532   1740    107  0.000  0.000  0.000  0.000  0.000  0.000  0.000    2.10  65.74   0.81      0   1740  330.3   0.66   0.55    0.0   0.90    0.33    0.33    0.26    0.13    0.07    0.03    0.01    0.00    0.00    0.00      787     116
 1981 160    69    54    8.8      7  0.125     38    355   1157    112    393   2143    376   307.9  0.540   1750    107  0.000  0.000  0.000  0.000  0.000  0.000  0.000    2.04  66.11   0.82      0   1750  331.6   0.66   0.55    0.0   0.90    0.33    0.33    0.26    0.13    0.07    0.03    0.01    0.00    0.00    0.00      803     118
 1981 161    70    55    8.8      8  0.094     28    350   1164    109    378   2134    376   309.9  0.546   1755    107  0.000  0.000  0.000  0.000  0.000  0.000  0.000    2.00  66.33   0.82      0   1755  332.8   0.66   0.55    0.0   0.90    0.32    0.32    0.25    0.13    0.07    0.03    0.01    0.00    0.00    0.00      815     121

*DSSAT Cropping System Model Ver. 4.6.1.000 -release      JUL 11, 2017; 16:24:41
                                                                                
*RUN   3        : SIM                       CRGRO046 0\000000    1              
 MODEL          : CRGRO046 - Dry bean                                           
 EXPERIMENT     : 0\000000 BN PALMIRA_ANALISIS SENSIBILIDAD                     
 DATA PATH      : D:\B\0\00000                                                  
 TREATMENT  1   : SIM                       CRGRO046                            
  
!                                                                                                                                                                                                                                                    Root Dens. (cm/cm3) by soil depth (cm):
!                                                                                                                                                                                                                                                    0-5    5-15   15-25   25-35   35-50   50-65   65-80   80-99  99-122 122-209
@YEAR DOY   DAS   DAP   L#SD   GSTD   LAID   LWAD   SWAD   GWAD   RWAD   VWAD   CWAD   G#AD    GWGD   HIAD   PWAD   P#AD   WSPD   WSGD   NSTD  PST1A  PST2A   KSTD   EWSD    LN%D   SH%D   HIPD   PWDD   PWTD   SLAD   CHTD   CWID   NWAD   RDPD    RL1D    RL2D    RL3D    RL4D    RL5D    RL6D    RL7D    RL8D    RL9D   RL10D    SNW0C   SNW1C
 1982 106    15     0    0.0      0  0.000      0      0      0      0      0      0      0     0.0  0.000      0      0  0.000  0.000  0.000  0.000  0.000  0.000  0.000    0.00   0.00   0.00      0      0    0.0   0.00   0.00    0.0   0.00    0.00    0.00    0.00    0.00    0.00    0.00    0.00    0.00    0.00    0.00        0       0
 1982 107    16     1    0.0      0  0.000      0      0      0      0      0      0      0     0.0  0.000      0      0  0.000  0.000  0.000  0.000  0.000  0.000  0.000    0.00   0.00   0.00      0      0    0.0   0.00   0.00    0.0   0.00    0.00    0.00    0.00    0.00    0.00    0.00    0.00    0.00    0.00    0.00        0       0
 1982 108    17     2    0.0      0  0.000      0      0      0      0      0      0      0     0.0  0.000      0      0  0.000  0.000  0.000  0.000  0.000  0.000  0.000    0.00   0.00   0.00      0      0    0.0   0.00   0.00    0.0   0.00    0.00    0.00    0.00    0.00    0.00    0.00    0.00    0.00    0.00    0.00        0       0
 1982 109    18     3    0.0      0  0.000      0      0      0      0      0      0      0     0.0  0.000      0      0  0.000  0.000  0.000  0.000  0.000  0.000  0.000    0.00   0.00   0.00      0      0    0.0   0.00   0.00    0.0   0.00    0.00    0.00    0.00    0.00    0.00    0.00    0.00    0.00    0.00    0.00        0       0
 1982 110    19     4    0.0      0  0.000      0      0      0      0      0      0      0     0.0  0.000      0      0  0.000  0.000  0.000  0.000  0.000  0.000  0.000    0.00   0.00   0.00      0      0    0.0   0.00   0.00    0.0   0.00    0.00    0.00    0.00    0.00    0.00    0.00    0.00    0.00    0.00    0.00        0       0
 1982 111    20     5    0.2      0  0.079     31     13      0     43     44     44      0     0.0  0.000      0      0  0.000  0.000  0.000  0.000  0.000  0.000  0.000    3.84   0.00   0.00      0      0  256.8   0.04   0.03    0.0   0.27    0.15    0.15    0.15    0.00    0.00    0.00    0.00    0.00    0.00    0.00        0       1
 1982 112    21     6    0.5      0  0.082     31     14      0     51     45     45      0     0.0  0.000      0      0  0.000  0.000  0.664  0.000  0.000  0.000  0.000    3.78   0.00   0.00      0      0  261.1   0.05   0.03    0.0   0.29    0.18    0.18    0.18    0.01    0.00    0.00    0.00    0.00    0.00    0.00        0       2
 1982 113    22     7    0.8      0  0.084     32     15      0     59     46     46      0     0.0  0.000      0      0  0.000  0.000  0.741  0.000  0.000  0.000  0.000    3.73   0.00   0.00      0      0  264.7   0.06   0.04    0.0   0.31    0.21    0.21    0.20    0.02    0.00    0.00    0.00    0.00    0.00    0.00        0       3
 1982 114    23     8    1.1      0  0.088     32     16      0     67     49     49      0     0.0  0.000      0      0  0.000  0.000  0.543  0.000  0.000  0.000  0.000    3.71   0.00   0.00      0      0  270.2   0.07   0.04    0.0   0.33    0.24    0.24    0.22    0.03    0.00    0.00    0.00    0.00    0.00    0.00        0       4
 1982 115    24     9    1.4      0  0.092     33     18      0     74     51     51      0     0.0  0.000      0      0  0.000  0.000  0.485  0.000  0.000  0.000  0.000    3.69   0.00   0.00      0      0  275.5   0.08   0.05    0.0   0.36    0.26    0.26    0.23    0.04    0.00    0.00    0.00    0.00    0.00    0.00        1       6
 1982 116    25    10    1.7      0  0.097     34     21      0     80     55     55      0     0.0  0.000      0      0  0.000  0.000  0.401  0.000  0.000  0.000  0.000    3.66   0.00   0.00      0      0  283.4   0.09   0.06    0.0   0.38    0.28    0.28    0.25    0.05    0.00    0.00    0.00    0.00    0.00    0.00        1       7
 1982 117    26    11    2.0      0  0.112     38     25      0     83     63     63      0     0.0  0.000      0      0  0.000  0.000  0.118  0.000  0.000  0.000  0.000    3.65   0.00   0.00      0      0  296.9   0.10   0.07    0.0   0.40    0.29    0.29    0.25    0.06    0.00    0.00    0.00    0.00    0.00    0.00        2       9
 1982 118    27    12    2.2      0  0.134     42     28      0     84     70     70      0     0.0  0.000      0      0  0.000  0.000  0.058  0.000  0.000  0.000  0.000    3.60   0.00   0.00      0      0  321.5   0.11   0.07    0.0   0.42    0.29    0.29    0.25    0.06    0.00    0.00    0.00    0.00    0.00    0.00        2      10
 1982 119    28    13    2.5      0  0.160     47     33      0     85     80     80      0     0.0  0.000      0      0  0.000  0.000  0.000  0.000  0.000  0.000  0.000    3.57   0.00   0.00      0      0  339.5   0.12   0.08    0.0   0.44    0.30    0.30    0.25    0.07    0.01    0.00    0.00    0.00    0.00    0.00        2      12
 1982 120    29    14    2.8      0  0.189     54     39      0     87     93     93      0     0.0  0.000      0      0  0.000  0.000  0.000  0.000  0.000  0.000  0.000    3.53   0.00   0.00      0      0  351.7   0.13   0.09    0.0   0.46    0.30    0.30    0.26    0.07    0.01    0.00    0.00    0.00    0.00    0.00        3      14
 1982 121    30    15    3.1      0  0.243     66     42      0     87    108    108      0     0.0  0.000      0      0  0.000  0.000  0.000  0.000  0.000  0.000  0.000    3.53   0.00   0.00      0      0  369.7   0.14   0.10    0.0   0.48    0.30    0.30    0.25    0.07    0.01    0.00    0.00    0.00    0.00    0.00        4      16
 1982 122    31    16    3.4      0  0.298     77     48      0     87    126    126      0     0.0  0.000      0      0  0.000  0.000  0.000  0.000  0.000  0.000  0.000    3.52   0.00   0.00      0      0  384.9   0.15   0.11    0.0   0.50    0.30    0.30    0.26    0.07    0.01    0.00    0.00    0.00    0.00    0.00        4      18
 1982 123    32    17    3.7      0  0.352     90     57      0     89    147    147      0     0.0  0.000      0      0  0.000  0.000  0.000  0.000  0.000  0.000  0.000    3.51   0.00   0.00      0      0  393.1   0.16   0.13    0.0   0.52    0.30    0.30    0.26    0.08    0.02    0.00    0.00    0.00    0.00    0.00        5      19
 1982 124    33    18    4.0      0  0.407    101     69      0     91    171    171      0     0.0  0.000      0      0  0.000  0.000  0.000  0.000  0.000  0.000  0.000    3.51   0.00   0.00      0      0  400.9   0.17   0.15    0.0   0.54    0.31    0.31    0.26    0.08    0.02    0.00    0.00    0.00    0.00    0.00        6      21
 1982 125    34    19    4.3      0  0.464    114     84      0     94    197    197      0     0.0  0.000      0      0  0.000  0.000  0.000  0.000  0.000  0.000  0.000    3.50   0.00   0.00      0      0  409.0   0.18   0.17    0.0   0.56    0.31    0.31    0.26    0.09    0.02    0.00    0.00    0.00    0.00    0.00        7      23
 1982 126    35    20    4.6      0  0.572    138     92      0     94    229    229      0     0.0  0.000      0      0  0.000  0.000  0.000  0.000  0.000  0.000  0.000    3.53   0.00   0.00      0      0  414.7   0.20   0.20    0.0   0.58    0.31    0.31    0.26    0.09    0.03    0.00    0.00    0.00    0.00    0.00        9      25
 1982 127    36    21    4.9      0  0.702    166    101      0     95    267    267      0     0.0  0.000      0      0  0.000  0.000  0.000  0.000  0.000  0.000  0.000    3.55   0.00   0.00      0      0  422.0   0.22   0.22    0.0   0.60    0.32    0.32    0.26    0.09    0.03    0.00    0.00    0.00    0.00    0.00       10      27
 1982 128    37    22    5.2      0  0.831    194    117      0     99    311    311      0     0.0  0.000      0      0  0.000  0.000  0.000  0.000  0.000  0.000  0.000    3.55   0.00   0.00      0      0  428.0   0.23   0.24    0.0   0.62    0.32    0.32    0.27    0.09    0.03    0.01    0.00    0.00    0.00    0.00       12      29
 1982 129    38    23    5.5      1  0.973    225    136      0    102    361    361      0     0.0  0.000      0      0  0.000  0.000  0.000  0.000  0.000  0.000  0.000    3.56   0.00   0.00      0      0  432.3   0.26   0.26    0.0   0.63    0.33    0.33    0.27    0.10    0.04    0.01    0.00    0.00    0.00    0.00       14      31
 1982 130    39    24    5.8      1  1.113    259    159      0    107    419    419      0     0.0  0.000      0      0  0.000  0.000  0.000  0.000  0.000  0.000  0.000    3.57   0.00   0.00      0      0  428.9   0.28   0.29    0.0   0.65    0.34    0.34    0.28    0.11    0.04    0.01    0.00    0.00    0.00    0.00       17      34
 1982 131    40    25    6.1      1  1.260    298    187      0    112    485    485      0     0.0  0.000      0      0  0.000  0.000  0.000  0.000  0.000  0.000  0.000    3.57   0.00   0.00      0      0  423.3   0.30   0.31    0.0   0.67    0.35    0.35    0.29    0.11    0.05    0.01    0.00    0.00    0.00    0.00       20      36
 1982 132    41    26    6.4      3  1.403    339    220      0    118    559    559      0     0.0  0.000      0      0  0.000  0.000  0.000  0.000  0.000  0.000  0.000    3.58   0.00   0.00      0      0  414.1   0.33   0.33    0.0   0.68    0.37    0.37    0.30    0.12    0.05    0.02    0.00    0.00    0.00    0.00       24      38
 1982 133    42    27    6.7      3  1.512    372    254      0    125    626    628      0     0.0  0.000      2      2  0.000  0.000  0.000  0.000  0.000  0.000  0.000    3.64   0.00   0.00      0      2  406.6   0.36   0.35    0.0   0.70    0.38    0.38    0.31    0.13    0.06    0.02    0.00    0.00    0.00    0.00       40      41
 1982 134    43    28    7.0      3  1.594    402    290      0    131    692    702      0     0.0  0.000     10      9  0.000  0.000  0.000  0.000  0.000  0.000  0.000    3.70   0.00   0.01      0     10  396.2   0.39   0.38    0.0   0.72    0.40    0.40    0.32    0.14    0.07    0.03    0.00    0.00    0.00    0.00       58      44
 1982 135    44    29    7.3      3  1.651    429    326      0    137    755    779      0     0.0  0.000     24     17  0.000  0.000  0.000  0.000  0.000  0.000  0.000    3.76   0.00   0.03      0     24  384.7   0.42   0.40    0.0   0.74    0.41    0.41    0.33    0.15    0.07    0.03    0.01    0.00    0.00    0.00       80      46
 1982 136    45    30    7.6      3  1.683    452    363      0    143    816    858      0     0.0  0.000     43     25  0.000  0.000  0.000  0.000  0.000  0.000  0.000    3.82   0.00   0.05      0     43  372.1   0.45   0.42    0.0   0.75    0.42    0.42    0.34    0.16    0.08    0.03    0.01    0.00    0.00    0.00      103      49
 1982 137    46    31    7.9      3  1.695    471    400      0    148    871    940      0     0.0  0.000     69     32  0.000  0.000  0.000  0.000  0.000  0.000  0.000    3.88   0.00   0.07      0     69  360.2   0.48   0.44    0.0   0.77    0.43    0.43    0.35    0.16    0.09    0.04    0.01    0.00    0.00    0.00      129      52
 1982 138    47    32    8.2      3  1.722    490    435      0    152    925   1029      0     0.0  0.000    104     41  0.000  0.000  0.000  0.000  0.000  0.000  0.000    3.88   0.00   0.10      0    104  351.1   0.51   0.46    0.0   0.79    0.44    0.44    0.35    0.17    0.09    0.04    0.01    0.00    0.00    0.00      144      56
 1982 139    48    33    8.5      5  1.749    512    470      0    156    982   1128      0     0.0  0.000    146     50  0.000  0.000  0.000  0.000  0.000  0.000  0.000    3.86   0.00   0.13      0    146  341.6   0.54   0.48    0.0   0.80    0.45    0.45    0.36    0.17    0.09    0.04    0.01    0.00    0.00    0.00      153      59
 1982 140    49    34    8.8      5  1.766    530    502      0    159   1032   1227      8     0.0  0.000    195     59  0.000  0.000  0.000  0.000  0.000  0.000  0.000    3.84   0.00   0.16      0    195  333.4   0.57   0.50    0.0   0.82    0.45    0.45    0.36    0.18    0.10    0.04    0.02    0.00    0.00    0.00      163      62
 1982 141    50    35    9.1      5  1.769    539    523      3    160   1062   1314     30    10.2  0.002    252     69  0.000  0.000  0.000  0.000  0.000  0.000  0.000    3.82   1.23   0.19      0    252  328.3   0.60   0.52    0.0   0.83    0.46    0.46    0.36    0.18    0.10    0.05    0.02    0.00    0.00    0.00      172      65
 1982 142    51    36    9.1      5  1.767    547    545     15    161   1093   1412     56    27.1  0.011    319     77  0.000  0.000  0.000  0.000  0.000  0.000  0.000    3.80   4.73   0.23      0    319  322.8   0.63   0.53    0.0   0.85    0.46    0.46    0.36    0.18    0.10    0.05    0.02    0.00    0.00    0.00      182      68
 1982 143    52    37    9.1      5  1.756    553    565     37    161   1117   1515     83    44.5  0.024    397     87  0.000  0.000  0.000  0.000  0.000  0.000  0.000    3.78   9.27   0.26      0    397  317.6   0.66   0.55    0.0   0.87    0.46    0.46    0.36    0.18    0.10    0.05    0.02    0.00    0.00    0.00      192      71
 1982 144    53    38    9.1      5  1.733    552    577     69    161   1129   1617    107    64.2  0.043    487     97  0.000  0.000  0.000  0.000  0.000  0.000  0.000    3.74  14.16   0.30      0    487  313.8   0.69   0.57    0.0   0.88    0.45    0.45    0.36    0.18    0.10    0.05    0.02    0.00    0.00    0.00      202      75
 1982 145    54    39    9.1      5  1.698    540    570    111    158   1110   1700    138    80.8  0.066    591    107  0.000  0.000  0.000  0.000  0.000  0.000  0.000    3.70  18.87   0.35      0    591  314.5   0.69   0.57    0.0   0.90    0.45    0.45    0.35    0.18    0.10    0.05    0.02    0.00    0.00    0.00      213      78
 1982 146    55    40    9.1      5  1.659    527    565    165    155   1092   1796    169    97.7  0.092    704    115  0.000  0.000  0.000  0.000  0.000  0.000  0.000    3.64  23.49   0.39      0    704  314.7   0.69   0.57    0.0   0.91    0.44    0.44    0.35    0.17    0.10    0.05    0.02    0.00    0.00    0.00      224      81
 1982 147    56    41    9.1      5  1.616    511    555    232    151   1066   1885    201   115.3  0.123    818    125  0.000  0.000  0.000  0.000  0.000  0.000  0.000    3.57  28.38   0.43      0    818  315.9   0.69   0.57    0.0   0.91    0.43    0.43    0.34    0.17    0.10    0.05    0.02    0.00    0.00    0.00      237      84
 1982 148    57    42    9.1      5  1.571    495    545    311    147   1040   1976    235   132.5  0.158    935    133  0.000  0.000  0.000  0.000  0.000  0.000  0.000    3.50  33.29   0.47      0    935  317.2   0.69   0.57    0.0   0.91    0.42    0.42    0.33    0.17    0.09    0.04    0.02    0.00    0.00    0.00      249      87
 1982 149    58    43    9.1      5  1.524    478    535    404    144   1013   2067    266   151.8  0.195   1054    138  0.000  0.000  0.000  0.000  0.000  0.000  0.000    3.42  38.29   0.51      0   1054  318.6   0.69   0.57    0.0   0.91    0.41    0.41    0.33    0.16    0.09    0.04    0.02    0.00    0.00    0.00      263      91
 1982 150    59    44    9.1      5  1.475    461    525    507    141    986   2159    299   169.3  0.235   1174    142  0.000  0.000  0.000  0.000  0.000  0.000  0.000    3.33  43.19   0.54      0   1174  320.0   0.69   0.57    0.0   0.91    0.40    0.40    0.32    0.16    0.09    0.04    0.02    0.00    0.00    0.00      277      94
 1982 151    60    45    9.1      7  1.423    443    514    621    137    957   2250    334   186.2  0.276   1293    143  0.000  0.000  0.000  0.000  0.000  0.000  0.000    3.22  48.07   0.57      0   1293  321.4   0.69   0.57    0.0   0.93    0.39    0.39    0.31    0.16    0.09    0.04    0.02    0.00    0.00    0.00      292      97
 1982 152    61    46    9.1      7  1.049    325    475    748    134    800   2208    367   203.6  0.339   1408    143  0.000  0.000  0.000  0.000  0.000  0.000  0.000    3.01  53.11   0.64      0   1408  322.9   0.69   0.57    0.0   0.93    0.38    0.38    0.30    0.15    0.09    0.04    0.02    0.00    0.00    0.00      439     100
 1982 153    62    47    9.1      7  0.775    239    446    847    131    685   2173    377   224.7  0.390   1489    137  0.000  0.000  0.000  0.000  0.000  0.000  0.000    2.83  56.89   0.68      0   1489  324.4   0.69   0.57    0.0   0.93    0.38    0.38    0.30    0.15    0.08    0.04    0.02    0.00    0.00    0.00      556     103
 1982 154    63    48    9.1      7  0.573    176    423    923    128    599   2157    377   244.8  0.428   1558    119  0.000  0.000  0.000  0.000  0.000  0.000  0.000    2.66  59.23   0.72      0   1558  325.9   0.69   0.57    0.0   0.93    0.37    0.37    0.29    0.15    0.08    0.04    0.02    0.00    0.00    0.00      633     105
 1982 155    64    49    9.1      7  0.425    130    406    977    125    536   2142    377   259.2  0.456   1606    113  0.000  0.000  0.000  0.000  0.000  0.000  0.000    2.51  60.82   0.75      0   1606  327.4   0.69   0.57    0.0   0.93    0.36    0.36    0.29    0.14    0.08    0.04    0.02    0.00    0.00    0.00      691     108
 1982 156    65    50    9.1      7  0.315     96    393   1019    122    488   2131    377   270.4  0.478   1643    110  0.000  0.000  0.000  0.000  0.000  0.000  0.000    2.37  62.04   0.77      0   1643  328.9   0.69   0.57    0.0   0.93    0.35    0.35    0.28    0.14    0.08    0.04    0.02    0.00    0.00    0.00      733     111
 1982 157    66    51    9.1      7  0.234     71    382   1050    119    453   2122    377   278.7  0.495   1669    108  0.000  0.000  0.000  0.000  0.000  0.000  0.000    2.24  62.94   0.79      0   1669  330.4   0.69   0.57    0.0   0.93    0.35    0.35    0.27    0.14    0.08    0.04    0.02    0.00    0.00    0.00      764     113
 1982 158    67    52    9.1      7  0.174     52    374   1073    117    426   2113    377   284.7  0.508   1687    108  0.000  0.000  0.000  0.000  0.000  0.000  0.000    2.13  63.61   0.80      0   1687  331.6   0.69   0.57    0.0   0.93    0.34    0.34    0.27    0.13    0.08    0.04    0.02    0.00    0.00    0.00      787     116
 1982 159    68    53    9.1      7  0.130     39    368   1087    114    406   2103    377   288.3  0.517   1697    108  0.000  0.000  0.000  0.000  0.000  0.000  0.000    2.06  64.03   0.81      0   1697  333.0   0.69   0.57    0.0   0.93    0.33    0.33    0.26    0.13    0.07    0.04    0.01    0.00    0.00    0.00      804     118
 1982 160    69    54    9.1      8  0.097     29    363   1094    111    392   2094    377   290.3  0.523   1702    108  0.000  0.000  0.000  0.000  0.000  0.000  0.000    2.03  64.28   0.81      0   1702  334.3   0.69   0.57    0.0   0.93    0.32    0.32    0.26    0.13    0.07    0.03    0.01    0.00    0.00    0.00      817     121

*DSSAT Cropping System Model Ver. 4.6.1.000 -release      JUL 11, 2017; 16:24:41
                                                                                
*RUN   4        : SIM                       CRGRO046 0\000000    1              
 MODEL          : CRGRO046 - Dry bean                                           
 EXPERIMENT     : 0\000000 BN PALMIRA_ANALISIS SENSIBILIDAD                     
 DATA PATH      : D:\B\0\00000                                                  
 TREATMENT  1   : SIM                       CRGRO046                            
  
!                                                                                                                                                                                                                                                    Root Dens. (cm/cm3) by soil depth (cm):
!                                                                                                                                                                                                                                                    0-5    5-15   15-25   25-35   35-50   50-65   65-80   80-99  99-122 122-209
@YEAR DOY   DAS   DAP   L#SD   GSTD   LAID   LWAD   SWAD   GWAD   RWAD   VWAD   CWAD   G#AD    GWGD   HIAD   PWAD   P#AD   WSPD   WSGD   NSTD  PST1A  PST2A   KSTD   EWSD    LN%D   SH%D   HIPD   PWDD   PWTD   SLAD   CHTD   CWID   NWAD   RDPD    RL1D    RL2D    RL3D    RL4D    RL5D    RL6D    RL7D    RL8D    RL9D   RL10D    SNW0C   SNW1C
 1983 106    15     0    0.0      0  0.000      0      0      0      0      0      0      0     0.0  0.000      0      0  0.000  0.000  0.000  0.000  0.000  0.000  0.000    0.00   0.00   0.00      0      0    0.0   0.00   0.00    0.0   0.00    0.00    0.00    0.00    0.00    0.00    0.00    0.00    0.00    0.00    0.00        0       0
 1983 107    16     1    0.0      0  0.000      0      0      0      0      0      0      0     0.0  0.000      0      0  0.000  0.000  0.000  0.000  0.000  0.000  0.000    0.00   0.00   0.00      0      0    0.0   0.00   0.00    0.0   0.00    0.00    0.00    0.00    0.00    0.00    0.00    0.00    0.00    0.00    0.00        0       0
 1983 108    17     2    0.0      0  0.000      0      0      0      0      0      0      0     0.0  0.000      0      0  0.000  0.000  0.000  0.000  0.000  0.000  0.000    0.00   0.00   0.00      0      0    0.0   0.00   0.00    0.0   0.00    0.00    0.00    0.00    0.00    0.00    0.00    0.00    0.00    0.00    0.00        0       0
 1983 109    18     3    0.0      0  0.000      0      0      0      0      0      0      0     0.0  0.000      0      0  0.000  0.000  0.000  0.000  0.000  0.000  0.000    0.00   0.00   0.00      0      0    0.0   0.00   0.00    0.0   0.00    0.00    0.00    0.00    0.00    0.00    0.00    0.00    0.00    0.00    0.00        0       0
 1983 110    19     4    0.0      0  0.000      0      0      0      0      0      0      0     0.0  0.000      0      0  0.000  0.000  0.000  0.000  0.000  0.000  0.000    0.00   0.00   0.00      0      0    0.0   0.00   0.00    0.0   0.00    0.00    0.00    0.00    0.00    0.00    0.00    0.00    0.00    0.00    0.00        0       0
 1983 111    20     5    0.2      0  0.079     31     13      0     43     44     44      0     0.0  0.000      0      0  0.000  0.000  0.000  0.000  0.000  0.000  0.000    3.84   0.00   0.00      0      0  256.7   0.04   0.03    0.0   0.27    0.15    0.15    0.15    0.00    0.00    0.00    0.00    0.00    0.00    0.00        0       1
 1983 112    21     6    0.5      0  0.082     31     14      0     51     45     45      0     0.0  0.000      0      0  0.000  0.000  0.654  0.000  0.000  0.000  0.000    3.78   0.00   0.00      0      0  261.7   0.05   0.03    0.0   0.29    0.18    0.18    0.18    0.01    0.00    0.00    0.00    0.00    0.00    0.00        0       2
 1983 113    22     7    0.8      0  0.084     32     15      0     59     46     46      0     0.0  0.000      0      0  0.000  0.000  0.740  0.000  0.000  0.000  0.000    3.72   0.00   0.00      0      0  265.3   0.06   0.04    0.0   0.31    0.21    0.21    0.20    0.02    0.00    0.00    0.00    0.00    0.00    0.00        0       3
 1983 114    23     8    1.1      0  0.087     32     16      0     67     48     48      0     0.0  0.000      0      0  0.000  0.000  0.595  0.000  0.000  0.000  0.000    3.70   0.00   0.00      0      0  271.2   0.07   0.04    0.0   0.33    0.24    0.24    0.22    0.03    0.00    0.00    0.00    0.00    0.00    0.00        0       4
 1983 115    24     9    1.4      0  0.091     33     18      0     74     51     51      0     0.0  0.000      0      0  0.000  0.000  0.487  0.000  0.000  0.000  0.000    3.68   0.00   0.00      0      0  277.5   0.08   0.05    0.0   0.36    0.26    0.26    0.23    0.04    0.00    0.00    0.00    0.00    0.00    0.00        1       6
 1983 116    25    10    1.7      0  0.096     34     21      0     80     55     55      0     0.0  0.000      0      0  0.000  0.000  0.375  0.000  0.000  0.000  0.000    3.66   0.00   0.00      0      0  285.2   0.09   0.06    0.0   0.38    0.28    0.28    0.24    0.05    0.00    0.00    0.00    0.00    0.00    0.00        1       7
 1983 117    26    11    2.0      0  0.112     37     25      0     83     62     62      0     0.0  0.000      0      0  0.000  0.000  0.154  0.000  0.000  0.000  0.000    3.64   0.00   0.00      0      0  301.1   0.10   0.07    0.0   0.40    0.29    0.29    0.25    0.06    0.00    0.00    0.00    0.00    0.00    0.00        2       9
 1983 118    27    12    2.3      0  0.138     42     28      0     84     71     71      0     0.0  0.000      0      0  0.000  0.000  0.040  0.000  0.000  0.000  0.000    3.59   0.00   0.00      0      0  326.2   0.11   0.07    0.0   0.42    0.29    0.29    0.25    0.06    0.00    0.00    0.00    0.00    0.00    0.00        2      11
 1983 119    28    13    2.6      0  0.165     48     33      0     85     81     81      0     0.0  0.000      0      0  0.000  0.000  0.000  0.000  0.000  0.000  0.000    3.56   0.00   0.00      0      0  342.8   0.12   0.08    0.0   0.44    0.30    0.30    0.25    0.07    0.01    0.00    0.00    0.00    0.00    0.00        2      12
 1983 120    29    14    2.9      0  0.197     55     39      0     87     94     94      0     0.0  0.000      0      0  0.000  0.000  0.000  0.000  0.000  0.000  0.000    3.53   0.00   0.00      0      0  358.2   0.13   0.09    0.0   0.46    0.30    0.30    0.26    0.07    0.01    0.00    0.00    0.00    0.00    0.00        3      14
 1983 121    30    15    3.2      0  0.253     67     42      0     87    110    110      0     0.0  0.000      0      0  0.000  0.000  0.000  0.000  0.000  0.000  0.000    3.52   0.00   0.00      0      0  374.7   0.14   0.10    0.0   0.48    0.30    0.30    0.25    0.07    0.01    0.00    0.00    0.00    0.00    0.00        4      16
 1983 122    31    16    3.5      0  0.309     80     49      0     87    129    129      0     0.0  0.000      0      0  0.000  0.000  0.000  0.000  0.000  0.000  0.000    3.51   0.00   0.00      0      0  387.9   0.15   0.12    0.0   0.50    0.30    0.30    0.26    0.07    0.01    0.00    0.00    0.00    0.00    0.00        4      18
 1983 123    32    17    3.8      0  0.364     92     58      0     89    150    150      0     0.0  0.000      0      0  0.000  0.000  0.000  0.000  0.000  0.000  0.000    3.51   0.00   0.00      0      0  395.5   0.16   0.14    0.0   0.52    0.30    0.30    0.26    0.08    0.02    0.00    0.00    0.00    0.00    0.00        5      20
 1983 124    33    18    4.1      0  0.419    103     71      0     91    174    174      0     0.0  0.000      0      0  0.000  0.000  0.000  0.000  0.000  0.000  0.000    3.50   0.00   0.00      0      0  406.0   0.17   0.16    0.0   0.54    0.31    0.31    0.26    0.08    0.02    0.00    0.00    0.00    0.00    0.00        6      22
 1983 125    34    19    4.4      0  0.490    119     83      0     93    203    203      0     0.0  0.000      0      0  0.000  0.000  0.000  0.000  0.000  0.000  0.000    3.51   0.00   0.00      0      0  410.4   0.19   0.18    0.0   0.56    0.31    0.31    0.26    0.09    0.02    0.00    0.00    0.00    0.00    0.00        8      24
 1983 126    35    20    4.7      0  0.605    145     92      0     94    237    237      0     0.0  0.000      0      0  0.000  0.000  0.000  0.000  0.000  0.000  0.000    3.53   0.00   0.00      0      0  416.8   0.20   0.20    0.0   0.58    0.31    0.31    0.26    0.09    0.03    0.00    0.00    0.00    0.00    0.00        9      26
 1983 127    36    21    5.0      0  0.743    174    102      0     96    276    276      0     0.0  0.000      0      0  0.000  0.000  0.000  0.000  0.000  0.000  0.000    3.55   0.00   0.00      0      0  426.2   0.22   0.22    0.0   0.60    0.32    0.32    0.26    0.09    0.03    0.00    0.00    0.00    0.00    0.00       11      28
 1983 128    37    22    5.3      0  0.873    204    120      0     99    323    323      0     0.0  0.000      0      0  0.000  0.000  0.000  0.000  0.000  0.000  0.000    3.55   0.00   0.00      0      0  427.9   0.24   0.25    0.0   0.62    0.32    0.32    0.27    0.10    0.03    0.01    0.00    0.00    0.00    0.00       13      30
 1983 129    38    23    5.6      1  1.020    237    141      0    103    378    378      0     0.0  0.000      0      0  0.000  0.000  0.000  0.000  0.000  0.000  0.000    3.56   0.00   0.00      0      0  430.2   0.26   0.27    0.0   0.64    0.33    0.33    0.28    0.10    0.04    0.01    0.00    0.00    0.00    0.00       15      32
 1983 130    39    24    5.9      1  1.168    274    166      0    108    440    440      0     0.0  0.000      0      0  0.000  0.000  0.000  0.000  0.000  0.000  0.000    3.57   0.00   0.00      0      0  427.0   0.29   0.29    0.0   0.66    0.34    0.34    0.28    0.11    0.04    0.01    0.00    0.00    0.00    0.00       18      34
 1983 131    40    25    6.2      3  1.326    312    196      0    113    507    507      0     0.0  0.000      0      0  0.000  0.000  0.000  0.000  0.000  0.000  0.000    3.57   0.00   0.00      0      0  425.3   0.32   0.32    0.0   0.67    0.36    0.36    0.29    0.12    0.05    0.02    0.00    0.00    0.00    0.00       21      37
 1983 132    41    26    6.5      3  1.450    351    230      0    120    581    581      0     0.0  0.000      0      0  0.000  0.000  0.000  0.000  0.000  0.000  0.000    3.60   0.00   0.00      0      0  413.0   0.35   0.34    0.0   0.69    0.37    0.37    0.30    0.12    0.06    0.02    0.00    0.00    0.00    0.00       30      39
 1983 133    42    27    6.8      3  1.548    385    266      0    126    651    653      0     0.0  0.000      2      3  0.000  0.000  0.000  0.000  0.000  0.000  0.000    3.66   0.00   0.00      0      2  402.0   0.38   0.36    0.0   0.71    0.39    0.39    0.31    0.13    0.06    0.02    0.00    0.00    0.00    0.00       47      42
 1983 134    43    28    7.1      3  1.622    416    304      0    133    719    730      0     0.0  0.000     10     10  0.000  0.000  0.000  0.000  0.000  0.000  0.000    3.73   0.00   0.01      0     10  390.2   0.41   0.39    0.0   0.73    0.40    0.40    0.32    0.14    0.07    0.03    0.00    0.00    0.00    0.00       67      45
 1983 135    44    29    7.4      3  1.675    441    340      0    139    781    806      0     0.0  0.000     25     17  0.000  0.000  0.000  0.000  0.000  0.000  0.000    3.78   0.00   0.03      0     25  379.9   0.44   0.41    0.0   0.74    0.41    0.41    0.33    0.15    0.08    0.03    0.01    0.00    0.00    0.00       90      47
 1983 136    45    30    7.7      3  1.703    462    377      0    145    839    885      0     0.0  0.000     47     26  0.000  0.000  0.000  0.000  0.000  0.000  0.000    3.84   0.00   0.05      0     47  368.7   0.47   0.43    0.0   0.76    0.43    0.43    0.34    0.16    0.08    0.04    0.01    0.00    0.00    0.00      113      50
 1983 137    46    31    8.0      3  1.714    479    413      0    150    892    968      0     0.0  0.000     75     34  0.000  0.000  0.000  0.000  0.000  0.000  0.000    3.89   0.00   0.08      0     75  357.4   0.50   0.45    0.0   0.78    0.44    0.44    0.35    0.16    0.09    0.04    0.01    0.00    0.00    0.00      138      53
 1983 138    47    32    8.3      5  1.748    503    450      0    154    952   1064      0     0.0  0.000    112     43  0.000  0.000  0.000  0.000  0.000  0.000  0.000    3.88   0.00   0.11      0    112  347.8   0.52   0.47    0.0   0.79    0.45    0.45    0.36    0.17    0.09    0.04    0.01    0.00    0.00    0.00      149      56
 1983 139    48    33    8.6      5  1.774    525    487      0    158   1012   1167      0     0.0  0.000    156     53  0.000  0.000  0.000  0.000  0.000  0.000  0.000    3.86   0.00   0.13      0    156  337.9   0.55   0.49    0.0   0.81    0.45    0.45    0.36    0.17    0.10    0.04    0.02    0.00    0.00    0.00      158      60
 1983 140    49    34    8.9      5  1.787    541    518      0    161   1059   1266     10     0.0  0.000    207     62  0.000  0.000  0.000  0.000  0.000  0.000  0.000    3.84   0.00   0.16      0    207  330.3   0.59   0.51    0.0   0.83    0.46    0.46    0.36    0.18    0.10    0.05    0.02    0.00    0.00    0.00      168      63
 1983 141    50    35    9.2      5  1.795    557    550      4    163   1107   1372     33    11.7  0.003    266     72  0.000  0.000  0.000  0.000  0.000  0.000  0.000    3.81   1.45   0.19      0    266  322.4   0.62   0.52    0.0   0.84    0.46    0.46    0.37    0.18    0.10    0.05    0.02    0.00    0.00    0.00      178      67
 1983 142    51    36    9.2      5  1.790    567    576     17    165   1143   1479     58    28.7  0.011    336     82  0.000  0.000  0.000  0.000  0.000  0.000  0.000    3.79   4.93   0.23      0    336  315.8   0.65   0.54    0.0   0.86    0.46    0.46    0.37    0.18    0.10    0.05    0.02    0.00    0.00    0.00      188      70
 1983 143    52    37    9.2      5  1.776    573    599     39    165   1172   1588     86    44.9  0.024    416     92  0.000  0.000  0.000  0.000  0.000  0.000  0.000    3.77   9.27   0.26      0    416  310.0   0.68   0.56    0.0   0.87    0.46    0.46    0.37    0.18    0.10    0.05    0.02    0.00    0.00    0.00      199      73
 1983 144    53    38    9.2      5  1.745    569    609     72    164   1179   1687    115    62.2  0.042    508    102  0.000  0.000  0.000  0.000  0.000  0.000  0.000    3.71  14.09   0.30      0    508  306.5   0.71   0.58    0.0   0.89    0.46    0.46    0.36    0.18    0.10    0.05    0.02    0.00    0.00    0.00      212      77
 1983 145    54    39    9.2      5  1.708    561    613    116    162   1174   1786    146    79.4  0.065    612    112  0.000  0.000  0.000  0.000  0.000  0.000  0.000    3.64  18.90   0.34      0    612  304.4   0.71   0.58    0.0   0.91    0.45    0.45    0.36    0.18    0.10    0.05    0.02    0.00    0.00    0.00      225      81
 1983 146    55    40    9.2      5  1.665    548    609    171    159   1157   1880    209    81.8  0.091    723    121  0.000  0.000  0.000  0.000  0.000  0.000  0.000    3.58  23.66   0.38      0    723  304.0   0.71   0.58    0.0   0.93    0.45    0.45    0.35    0.18    0.10    0.05    0.02    0.00    0.00    0.00      243      84
 1983 147    56    41    9.2      5  1.618    530    598    251    155   1128   1975    242   103.9  0.127    848    129  0.000  0.000  0.000  0.000  0.000  0.000  0.000    3.50  29.67   0.43      0    848  305.4   0.71   0.58    0.0   0.93    0.44    0.44    0.35    0.18    0.10    0.05    0.02    0.00    0.00    0.00      259      88
 1983 148    57    42    9.2      5  1.572    512    587    346    152   1099   2072    242   143.1  0.167    973    135  0.000  0.000  0.000  0.000  0.000  0.000  0.000    3.43  35.58   0.47      0    973  306.8   0.71   0.58    0.0   0.93    0.43    0.43    0.34    0.17    0.10    0.05    0.02    0.00    0.00    0.00      271      91
 1983 149    58    43    9.2      5  1.522    494    575    440    148   1069   2163    276   159.7  0.203   1094    139  0.000  0.000  0.000  0.000  0.000  0.000  0.000    3.34  40.22   0.51      0   1094  308.2   0.71   0.58    0.0   0.93    0.42    0.42    0.33    0.17    0.10    0.05    0.02    0.00    0.00    0.00      288      94
 1983 150    59    44    9.2      5  1.469    474    564    545    145   1038   2251    345   158.2  0.242   1213    140  0.000  0.000  0.000  0.000  0.000  0.000  0.000    3.24  44.95   0.54      0   1213  309.6   0.71   0.58    0.0   0.94    0.41    0.41    0.32    0.16    0.09    0.05    0.02    0.00    0.00    0.00      308      97
 1983 151    60    45    9.2      7  1.420    457    553    676    141   1010   2349    345   196.2  0.288   1339    140  0.000  0.000  0.000  0.000  0.000  0.000  0.000    3.13  50.52   0.57      0   1339  310.9   0.71   0.58    0.0   0.96    0.40    0.40    0.32    0.16    0.09    0.04    0.02    0.00    0.00    0.00      321     100
 1983 152    61    46    9.2      7  1.048    335    513    803    138    848   2295    372   216.1  0.350   1447    137  0.000  0.000  0.000  0.000  0.000  0.000  0.000    2.94  55.52   0.63      0   1447  312.5   0.71   0.58    0.0   0.96    0.39    0.39    0.31    0.16    0.09    0.04    0.02    0.00    0.00    0.00      481     103
 1983 153    62    47    9.2      7  0.775    247    482    904    135    729   2258    381   236.9  0.400   1529    130  0.000  0.000  0.000  0.000  0.000  0.000  0.000    2.76  59.10   0.68      0   1529  313.9   0.71   0.58    0.0   0.96    0.38    0.38    0.30    0.15    0.09    0.04    0.02    0.00    0.00    0.00      601     106
 1983 154    63    48    9.2      7  0.573    182    459    976    131    640   2236    381   256.0  0.437   1596    116  0.000  0.000  0.000  0.000  0.000  0.000  0.000    2.60  61.19   0.71      0   1596  315.4   0.71   0.58    0.0   0.96    0.38    0.38    0.30    0.15    0.09    0.04    0.02    0.00    0.00    0.00      682     109
 1983 155    64    49    9.2      7  0.425    134    441   1033    129    575   2222    381   271.0  0.465   1647    111  0.000  0.000  0.000  0.000  0.000  0.000  0.000    2.45  62.74   0.74      0   1647  316.9   0.71   0.58    0.0   0.96    0.37    0.37    0.29    0.15    0.08    0.04    0.02    0.00    0.00    0.00      741     112
 1983 156    65    50    9.2      7  0.315     99    427   1075    126    526   2209    381   281.9  0.487   1684    109  0.000  0.000  0.000  0.000  0.000  0.000  0.000    2.32  63.85   0.76      0   1684  318.5   0.71   0.58    0.0   0.96    0.36    0.36    0.29    0.14    0.08    0.04    0.02    0.00    0.00    0.00      784     115
 1983 157    66    51    9.2      7  0.234     73    415   1107    123    489   2199    381   290.2  0.503   1711    109  0.000  0.000  0.000  0.000  0.000  0.000  0.000    2.20  64.70   0.78      0   1711  319.9   0.71   0.58    0.0   0.96    0.35    0.35    0.28    0.14    0.08    0.04    0.02    0.00    0.00    0.00      816     117
[...]
*RUN  32        : SIM                       CRGRO046 0\000000    1              
 MODEL          : CRGRO046 - Dry bean                                           
 EXPERIMENT     : 0\000000 BN PALMIRA_ANALISIS SENSIBILIDAD                     
 DATA PATH      : D:\B\0\00000                                                  
 TREATMENT  1   : SIM                       CRGRO046                            
  
!                                                                                                                                                                                                                                                    Root Dens. (cm/cm3) by soil depth (cm):
!                                                                                                                                                                                                                                                    0-5    5-15   15-25   25-35   35-50   50-65   65-80   80-99  99-122 122-209
@YEAR DOY   DAS   DAP   L#SD   GSTD   LAID   LWAD   SWAD   GWAD   RWAD   VWAD   CWAD   G#AD    GWGD   HIAD   PWAD   P#AD   WSPD   WSGD   NSTD  PST1A  PST2A   KSTD   EWSD    LN%D   SH%D   HIPD   PWDD   PWTD   SLAD   CHTD   CWID   NWAD   RDPD    RL1D    RL2D    RL3D    RL4D    RL5D    RL6D    RL7D    RL8D    RL9D   RL10D    SNW0C   SNW1C
 2011 106    15     0    0.0      0  0.000      0      0      0      0      0      0      0     0.0  0.000      0      0  0.000  0.000  0.000  0.000  0.000  0.000  0.000    0.00   0.00   0.00      0      0    0.0   0.00   0.00    0.0   0.00    0.00    0.00    0.00    0.00    0.00    0.00    0.00    0.00    0.00    0.00        0       0
 2011 107    16     1    0.0      0  0.000      0      0      0      0      0      0      0     0.0  0.000      0      0  0.000  0.000  0.000  0.000  0.000  0.000  0.000    0.00   0.00   0.00      0      0    0.0   0.00   0.00    0.0   0.00    0.00    0.00    0.00    0.00    0.00    0.00    0.00    0.00    0.00    0.00        0       0
 2011 108    17     2    0.0      0  0.000      0      0      0      0      0      0      0     0.0  0.000      0      0  0.000  0.000  0.000  0.000  0.000  0.000  0.000    0.00   0.00   0.00      0      0    0.0   0.00   0.00    0.0   0.00    0.00    0.00    0.00    0.00    0.00    0.00    0.00    0.00    0.00    0.00        0       0
 2011 109    18     3    0.0      0  0.000      0      0      0      0      0      0      0     0.0  0.000      0      0  0.000  0.000  0.000  0.000  0.000  0.000  0.000    0.00   0.00   0.00      0      0    0.0   0.00   0.00    0.0   0.00    0.00    0.00    0.00    0.00    0.00    0.00    0.00    0.00    0.00    0.00        0       0
 2011 110    19     4    0.0      0  0.000      0      0      0      0      0      0      0     0.0  0.000      0      0  0.000  0.000  0.000  0.000  0.000  0.000  0.000    0.00   0.00   0.00      0      0    0.0   0.00   0.00    0.0   0.00    0.00    0.00    0.00    0.00    0.00    0.00    0.00    0.00    0.00    0.00        0       0
 2011 111    20     5    0.2      0  0.079     31     13      0     43     44     44      0     0.0  0.000      0      0  0.000  0.000  0.000  0.000  0.000  0.000  0.000    3.84   0.00   0.00      0      0  256.7   0.04   0.03    0.0   0.27    0.15    0.15    0.15    0.00    0.00    0.00    0.00    0.00    0.00    0.00        0       1
 2011 112    21     6    0.5      0  0.082     31     14      0     51     45     45      0     0.0  0.000      0      0  0.000  0.000  0.674  0.000  0.000  0.000  0.000    3.78   0.00   0.00      0      0  261.2   0.05   0.03    0.0   0.29    0.19    0.19    0.18    0.01    0.00    0.00    0.00    0.00    0.00    0.00        0       2
 2011 113    22     7    0.8      0  0.084     32     15      0     60     47     47      0     0.0  0.000      0      0  0.000  0.000  0.703  0.000  0.000  0.000  0.000    3.73   0.00   0.00      0      0  264.8   0.06   0.04    0.0   0.31    0.22    0.22    0.20    0.02    0.00    0.00    0.00    0.00    0.00    0.00        0       3
 2011 114    23     8    1.1      0  0.088     32     16      0     68     49     49      0     0.0  0.000      0      0  0.000  0.000  0.555  0.000  0.000  0.000  0.000    3.71   0.00   0.00      0      0  270.3   0.07   0.04    0.0   0.33    0.24    0.24    0.22    0.03    0.00    0.00    0.00    0.00    0.00    0.00        0       4
 2011 115    24     9    1.4      0  0.092     33     19      0     76     52     52      0     0.0  0.000      0      0  0.000  0.000  0.476  0.000  0.000  0.000  0.000    3.68   0.00   0.00      0      0  277.1   0.08   0.05    0.0   0.36    0.27    0.27    0.24    0.05    0.00    0.00    0.00    0.00    0.00    0.00        1       6
 2011 116    25    10    1.7      0  0.098     34     22      0     82     57     57      0     0.0  0.000      0      0  0.000  0.000  0.298  0.000  0.000  0.000  0.000    3.66   0.00   0.00      0      0  284.0   0.09   0.06    0.0   0.38    0.29    0.29    0.25    0.06    0.00    0.00    0.00    0.00    0.00    0.00        1       7
 2011 117    26    11    2.0      0  0.113     38     27      0     85     64     64      0     0.0  0.000      0      0  0.000  0.000  0.146  0.000  0.000  0.000  0.000    3.63   0.00   0.00      0      0  299.9   0.10   0.07    0.0   0.40    0.30    0.30    0.26    0.06    0.00    0.00    0.00    0.00    0.00    0.00        2       9
 2011 118    27    12    2.3      0  0.140     44     31      0     86     74     74      0     0.0  0.000      0      0  0.000  0.000  0.000  0.000  0.000  0.000  0.000    3.58   0.00   0.00      0      0  320.4   0.11   0.07    0.0   0.42    0.30    0.30    0.26    0.07    0.00    0.00    0.00    0.00    0.00    0.00        2      11
 2011 119    28    13    2.6      0  0.167     50     37      0     88     86     86      0     0.0  0.000      0      0  0.000  0.000  0.000  0.000  0.000  0.000  0.000    3.54   0.00   0.00      0      0  336.3   0.12   0.08    0.0   0.44    0.30    0.30    0.26    0.07    0.01    0.00    0.00    0.00    0.00    0.00        3      13
 2011 120    29    14    2.9      0  0.201     57     43      0     89    100    100      0     0.0  0.000      0      0  0.000  0.000  0.000  0.000  0.000  0.000  0.000    3.52   0.00   0.00      0      0  352.3   0.13   0.09    0.0   0.46    0.31    0.31    0.26    0.07    0.01    0.00    0.00    0.00    0.00    0.00        3      15
 2011 121    30    15    3.2      0  0.259     70     47      0     89    117    117      0     0.0  0.000      0      0  0.000  0.000  0.000  0.000  0.000  0.000  0.000    3.52   0.00   0.00      0      0  369.2   0.14   0.10    0.0   0.48    0.31    0.31    0.26    0.08    0.01    0.00    0.00    0.00    0.00    0.00        4      16
 2011 122    31    16    3.5      0  0.314     83     55      0     91    138    138      0     0.0  0.000      0      0  0.000  0.000  0.000  0.000  0.000  0.000  0.000    3.52   0.00   0.00      0      0  377.3   0.15   0.12    0.0   0.50    0.31    0.31    0.26    0.08    0.01    0.00    0.00    0.00    0.00    0.00        5      18
 2011 123    32    17    3.8      0  0.369     93     66      0     93    159    159      0     0.0  0.000      0      0  0.000  0.000  0.000  0.000  0.000  0.000  0.000    3.50   0.00   0.00      0      0  395.9   0.16   0.14    0.0   0.53    0.31    0.31    0.27    0.08    0.02    0.00    0.00    0.00    0.00    0.00        5      20
 2011 124    33    18    4.1      0  0.423    105     80      0     96    185    185      0     0.0  0.000      0      0  0.000  0.000  0.000  0.000  0.000  0.000  0.000    3.50   0.00   0.00      0      0  403.4   0.17   0.16    0.0   0.55    0.32    0.32    0.27    0.09    0.02    0.00    0.00    0.00    0.00    0.00        7      22
 2011 125    34    19    4.4      0  0.498    122     94      0     98    215    215      0     0.0  0.000      0      0  0.000  0.000  0.000  0.000  0.000  0.000  0.000    3.51   0.00   0.00      0      0  409.2   0.19   0.18    0.0   0.56    0.33    0.33    0.27    0.09    0.03    0.00    0.00    0.00    0.00    0.00        8      24
 2011 126    35    20    4.7      0  0.619    150    103      0     99    252    252      0     0.0  0.000      0      0  0.000  0.000  0.000  0.000  0.000  0.000  0.000    3.54   0.00   0.00      0      0  413.4   0.20   0.20    0.0   0.58    0.33    0.33    0.27    0.09    0.03    0.00    0.00    0.00    0.00    0.00        9      27
 2011 127    36    21    5.0      0  0.758    180    116      0    101    296    296      0     0.0  0.000      0      0  0.000  0.000  0.000  0.000  0.000  0.000  0.000    3.55   0.00   0.00      0      0  422.0   0.22   0.23    0.0   0.60    0.33    0.33    0.28    0.10    0.03    0.00    0.00    0.00    0.00    0.00       11      29
 2011 128    37    22    5.3      0  0.902    212    135      0    105    346    346      0     0.0  0.000      0      0  0.000  0.000  0.000  0.000  0.000  0.000  0.000    3.56   0.00   0.00      0      0  426.1   0.24   0.25    0.0   0.62    0.34    0.34    0.28    0.10    0.04    0.01    0.00    0.00    0.00    0.00       13      31
 2011 129    38    23    5.6      1  1.063    248    158      0    109    406    406      0     0.0  0.000      0      0  0.000  0.000  0.000  0.000  0.000  0.000  0.000    3.57   0.00   0.00      0      0  428.5   0.26   0.27    0.0   0.64    0.35    0.35    0.29    0.11    0.04    0.01    0.00    0.00    0.00    0.00       15      33
 2011 130    39    24    5.9      1  1.215    288    186      0    115    474    474      0     0.0  0.000      0      0  0.000  0.000  0.000  0.000  0.000  0.000  0.000    3.57   0.00   0.00      0      0  421.6   0.29   0.29    0.0   0.66    0.36    0.36    0.30    0.12    0.05    0.01    0.00    0.00    0.00    0.00       18      36
 2011 131    40    25    6.2      3  1.384    331    219      0    121    550    550      0     0.0  0.000      0      0  0.000  0.000  0.000  0.000  0.000  0.000  0.000    3.58   0.00   0.00      0      0  417.5   0.32   0.32    0.0   0.68    0.38    0.38    0.31    0.13    0.05    0.02    0.00    0.00    0.00    0.00       22      38
 2011 132    41    26    6.5      3  1.528    374    256      0    128    630    630      0     0.0  0.000      0      0  0.000  0.000  0.000  0.000  0.000  0.000  0.000    3.62   0.00   0.00      0      0  409.2   0.35   0.34    0.0   0.69    0.39    0.39    0.32    0.14    0.06    0.02    0.00    0.00    0.00    0.00       33      41
 2011 133    42    27    6.8      3  1.641    410    295      0    135    705    708      0     0.0  0.000      3      3  0.000  0.000  0.000  0.000  0.000  0.000  0.000    3.68   0.00   0.00      0      3  399.9   0.38   0.36    0.0   0.71    0.41    0.41    0.33    0.15    0.07    0.03    0.00    0.00    0.00    0.00       50      44
 2011 134    43    28    7.1      3  1.728    440    331      0    142    772    784      0     0.0  0.000     12     11  0.000  0.000  0.000  0.000  0.000  0.000  0.000    3.73   0.00   0.02      0     12  392.7   0.41   0.39    0.0   0.73    0.42    0.42    0.34    0.15    0.08    0.03    0.00    0.00    0.00    0.00       70      46
 2011 135    44    29    7.4      3  1.789    470    373      0    149    843    871      0     0.0  0.000     28     19  0.000  0.000  0.000  0.000  0.000  0.000  0.000    3.79   0.00   0.03      0     28  380.6   0.43   0.40    0.0   0.74    0.44    0.44    0.35    0.16    0.08    0.04    0.01    0.00    0.00    0.00       93      49
 2011 136    45    30    7.7      3  1.823    494    414      0    155    908    960      0     0.0  0.000     52     28  0.000  0.000  0.000  0.000  0.000  0.000  0.000    3.85   0.00   0.05      0     52  368.7   0.46   0.43    0.0   0.76    0.45    0.45    0.36    0.17    0.09    0.04    0.01    0.00    0.00    0.00      119      52
 2011 137    46    31    8.0      3  1.835    514    455      0    161    969   1052      0     0.0  0.000     83     38  0.000  0.000  0.000  0.000  0.000  0.000  0.000    3.91   0.00   0.08      0     83  356.9   0.49   0.45    0.0   0.78    0.47    0.47    0.37    0.18    0.10    0.04    0.01    0.00    0.00    0.00      147      56
 2011 138    47    32    8.3      3  1.872    543    498      0    167   1041   1163      0     0.0  0.000    122     48  0.000  0.000  0.000  0.000  0.000  0.000  0.000    3.90   0.00   0.11      0    122  345.0   0.52   0.47    0.0   0.79    0.48    0.48    0.38    0.19    0.10    0.05    0.01    0.00    0.00    0.00      159      59
 2011 139    48    33    8.6      5  1.899    566    539      0    171   1106   1276      0     0.0  0.000    171     58  0.000  0.000  0.000  0.000  0.000  0.000  0.000    3.88   0.00   0.13      0    171  335.2   0.55   0.48    0.0   0.81    0.49    0.49    0.39    0.19    0.11    0.05    0.02    0.00    0.00    0.00      171      63
 2011 140    49    34    8.9      5  1.917    589    580      0    175   1170   1395     11     0.0  0.000    226     69  0.000  0.000  0.000  0.000  0.000  0.000  0.000    3.87   0.00   0.16      0    226  325.2   0.58   0.50    0.0   0.82    0.50    0.50    0.39    0.20    0.11    0.05    0.02    0.00    0.00    0.00      182      66
 2011 141    50    35    9.2      5  1.923    607    616      4    178   1223   1513     37    11.0  0.003    290     79  0.000  0.000  0.000  0.000  0.000  0.000  0.000    3.85   1.39   0.19      0    290  317.0   0.61   0.52    0.0   0.84    0.50    0.50    0.40    0.20    0.11    0.05    0.02    0.00    0.00    0.00      194      70
 2011 142    51    36    9.2      5  1.920    619    646     18    180   1265   1632     64    28.6  0.011    367     90  0.000  0.000  0.000  0.000  0.000  0.000  0.000    3.82   4.97   0.23      0    367  310.5   0.64   0.54    0.0   0.86    0.50    0.50    0.40    0.20    0.12    0.06    0.02    0.00    0.00    0.00      206      73
 2011 143    52    37    9.2      5  1.908    626    671     43    181   1298   1752     94    45.1  0.024    455    102  0.000  0.000  0.000  0.000  0.000  0.000  0.000    3.81   9.35   0.26      0    455  304.7   0.67   0.56    0.0   0.87    0.50    0.50    0.40    0.20    0.12    0.06    0.02    0.00    0.00    0.00      219      77
 2011 144    53    38    9.2      5  1.881    627    690     78    181   1317   1870    126    61.7  0.042    553    113  0.000  0.000  0.000  0.000  0.000  0.000  0.000    3.75  14.07   0.30      0    553  300.1   0.70   0.57    0.0   0.89    0.50    0.50    0.40    0.20    0.12    0.06    0.03    0.00    0.00    0.00      234      81
 2011 145    54    39    9.2      5  1.841    619    696    126    179   1314   1980    159    79.2  0.064    666    123  0.000  0.000  0.000  0.000  0.000  0.000  0.000    3.69  18.91   0.34      0    666  297.7   0.70   0.57    0.0   0.91    0.50    0.50    0.39    0.20    0.12    0.06    0.03    0.00    0.00    0.00      250      85
 2011 146    55    40    9.2      5  1.796    605    694    186    176   1300   2089    192    96.7  0.089    790    134  0.000  0.000  0.000  0.000  0.000  0.000  0.000    3.62  23.54   0.38      0    790  296.7   0.70   0.57    0.0   0.92    0.49    0.49    0.39    0.20    0.12    0.06    0.03    0.00    0.00    0.00      267      89
 2011 147    56    41    9.2      5  1.746    587    685    259    172   1272   2196    228   113.6  0.118    924    142  0.000  0.000  0.000  0.000  0.000  0.000  0.000    3.55  27.98   0.42      0    924  297.3   0.70   0.57    0.0   0.94    0.48    0.48    0.38    0.20    0.11    0.06    0.03    0.00    0.00    0.00      285      93
 2011 148    57    42    9.2      5  1.695    567    672    346    168   1239   2300    264   131.3  0.151   1061    149  0.000  0.000  0.000  0.000  0.000  0.000  0.000    3.47  32.63   0.46      0   1061  298.7   0.70   0.57    0.0   0.94    0.47    0.47    0.37    0.19    0.11    0.05    0.02    0.00    0.00    0.00      304      96
 2011 149    58    43    9.2      5  1.640    546    658    448    164   1205   2402    301   148.6  0.187   1197    153  0.000  0.000  0.000  0.000  0.000  0.000  0.000    3.39  37.42   0.50      0   1197  300.1   0.70   0.57    0.0   0.94    0.46    0.46    0.36    0.19    0.11    0.05    0.02    0.00    0.00    0.00      323     100
 2011 150    59    44    9.2      5  1.584    525    645    563    160   1170   2500    377   149.2  0.225   1330    154  0.000  0.000  0.000  0.000  0.000  0.000  0.000    3.29  42.32   0.53      0   1330  301.5   0.70   0.57    0.0   0.96    0.45    0.45    0.35    0.18    0.11    0.05    0.02    0.00    0.00    0.00      347     103
 2011 151    60    45    9.2      7  1.530    505    633    706    156   1138   2607    414   170.5  0.271   1469    154  0.000  0.000  0.000  0.000  0.000  0.000  0.000    3.18  48.08   0.56      0   1469  302.8   0.70   0.57    0.0   0.97    0.44    0.44    0.35    0.18    0.10    0.05    0.02    0.00    0.00    0.00      365     107
 2011 152    61    46    9.2      7  1.128    371    587    847    153    958   2548    444   190.7  0.332   1590    151  0.000  0.000  0.000  0.000  0.000  0.000  0.000    2.98  53.27   0.62      0   1590  304.4   0.70   0.57    0.0   0.97    0.43    0.43    0.34    0.18    0.10    0.05    0.02    0.00    0.00    0.00      540     110
 2011 153    62    47    9.2      7  0.834    273    553    948    149    826   2509    444   213.5  0.378   1684    151  0.000  0.000  0.000  0.000  0.000  0.000  0.000    2.81  56.32   0.67      0   1684  306.0   0.70   0.57    0.0   0.97    0.42    0.42    0.33    0.17    0.10    0.05    0.02    0.00    0.00    0.00      661     113
 2011 154    63    48    9.2      7  0.617    201    527   1034    146    728   2481    451   229.3  0.417   1754    144  0.000  0.000  0.000  0.000  0.000  0.000  0.000    2.65  58.96   0.71      0   1754  307.5   0.70   0.57    0.0   0.97    0.41    0.41    0.33    0.17    0.10    0.05    0.02    0.00    0.00    0.00      758     116
 2011 155    64    49    9.2      7  0.458    148    507   1096    143    655   2464    451   243.0  0.445   1809    137  0.000  0.000  0.000  0.000  0.000  0.000  0.000    2.50  60.58   0.73      0   1809  309.0   0.70   0.57    0.0   0.97    0.41    0.41    0.32    0.17    0.10    0.05    0.02    0.00    0.00    0.00      823     119
 2011 156    65    50    9.2      7  0.340    109    491   1147    139    600   2455    451   254.3  0.467   1854    132  0.000  0.000  0.000  0.000  0.000  0.000  0.000    2.36  61.86   0.76      0   1854  310.3   0.70   0.57    0.0   0.97    0.40    0.40    0.31    0.16    0.09    0.05    0.02    0.00    0.00    0.00      871     123
 2011 157    66    51    9.2      7  0.252     81    479   1184    136    560   2446    451   262.5  0.484   1885    129  0.000  0.000  0.000  0.000  0.000  0.000  0.000    2.23  62.78   0.77      0   1885  311.4   0.70   0.57    0.0   0.97    0.39    0.39    0.31    0.16    0.09    0.04    0.02    0.00    0.00    0.00      907     126
 2011 158    67    52    9.2      7  0.187     60    469   1211    133    529   2436    451   268.5  0.497   1907    129  0.000  0.000  0.000  0.000  0.000  0.000  0.000    2.12  63.49   0.78      0   1907  312.8   0.70   0.57    0.0   0.97    0.38    0.38    0.30    0.15    0.09    0.04    0.02    0.00    0.00    0.00      933     129
 2011 159    68    53    9.2      7  0.140     44    461   1228    130    506   2426    451   272.3  0.506   1920    129  0.000  0.000  0.000  0.000  0.000  0.000  0.000    2.04  63.94   0.79      0   1920  314.0   0.70   0.57    0.0   0.97    0.37    0.37    0.29    0.15    0.09    0.04    0.02    0.00    0.00    0.00      952     131
 2011 160    69    54    9.2      8  0.104     33    456   1237    127    489   2416    451   274.4  0.512   1927    129  0.000  0.000  0.000  0.000  0.000  0.000  0.000    2.00  64.20   0.80      0   1927  315.3   0.70   0.57    0.0   0.99    0.36    0.36    0.29    0.15    0.09    0.04    0.02    0.00    0.00    0.00      967     134
