*SIMULATION OVERVIEW FILE

*DSSAT Cropping System Model Ver. 4.6.1.000 -release      JUL 11, 2017; 16:24:46
                                                                                
*RUN   1        : SIM                       CRGRO046 3\000003    1              
 MODEL          : CRGRO046 - Dry bean                                           
 EXPERIMENT     : 3\000003 BN PALMIRA_ANALISIS SENSIBILIDAD                     
 DATA PATH      : D:\B\0\00000                                                  
 TREATMENT  1   : SIM                       CRGRO046                            
                                                                                
                                                                                
 CROP           : Dry bean         CULTIVAR : Jatu Rong        ECOTYPE :ANDIND  
 STARTING DATE  : APR  1 1980                                                   
 PLANTING DATE  : AUTOMATIC PLANTING PLANTS/m2 : 26.6     ROW SPACING :  60.cm  
 WEATHER        : PALM   1980                                                   
 SOIL           : CCPA000030     TEXTURE : C     -   Silty Clay Loam            
 WATER BALANCE  : NOT SIMULATED ; NO H2O-STRESS                                 
 IRRIGATION     :                                                               
 NITROGEN BAL.  : NOT SIMULATED ; NO N-STRESS                                   
 N-FERTILIZER   :                                                               
 RESIDUE/MANURE :                                                               
 ENVIRONM. OPT. : DAYL=    0.00  SRAD=    0.00  TMAX=    0.00  TMIN=    0.00    
                  RAIN=    0.00  CO2 =    0.00  DEW =    0.00  WIND=    0.00    
 SIMULATION OPT : WATER   :N  NITROGEN:N  N-FIX:N  PHOSPH :N  PESTS  :N         
                  PHOTO   :L  ET      :R  INFIL:S  HYDROL :R  SOM    :G         
                  CO2 338ppm  NSWIT   :1  EVAP :S  SOIL   :2  STEMP  :D         
 MANAGEMENT OPT : PLANTING:A  IRRIG   :A  FERT :D  RESIDUE:N  HARVEST:M         
                  WEATHER :M  TILLAGE :N                                        
                                                                                
*SUMMARY OF SOIL AND GENETIC INPUT PARAMETERS                                   
                                                                                
 Dry bean   CULTIVAR :000003-Jatu Rong          ECOTYPE :ANDIND                 
 CSDVAR :12.17  PPSEN  : 0.05  EMG-FLW:20.00  FLW-FSD: 9.00  FSD-PHM : 11.00    
 WTPSD  :0.600  SDPDVR : 3.50  SDFDUR :15.00  PODDUR :10.00  XFRUIT  :  1.00    
 THRESH : 78.0  SDPRO  :0.235  SDLIP   : 0.030                                  


*SIMULATED CROP AND SOIL STATUS AT MAIN DEVELOPMENT STAGES

 RUN NO.     1     SIM                     

        CROP GROWTH     BIOMASS         LEAF   CROP N     STRESS      STRESS                                           
   DATE  AGE STAGE        kg/ha    LAI   NUM  kg/ha  %   H2O  Nitr Phos1 Phos2  RSTG                                   
 ------  --- ----------   -----  -----  ----  ---  ---  ----  ----  ----  ----  ----                                   
  1 APR    0 Start Sim        0   0.00   0.0    0  0.0  0.00  0.00  0.00  0.00     0
 15 APR    0 Sowing           0   0.00   0.0    0  0.0  0.00  0.00  0.00  0.00     0
 20 APR    5 Emergence       44   0.08   0.2    1  3.4  0.00  0.00  0.00  0.00     0
 20 APR    5 End Juven.      44   0.08   0.2    1  3.4  0.00  0.00  0.00  0.00     0
 23 APR    8 Unifoliate      49   0.09   1.1    2  3.3  0.00  0.64  0.00  0.00     0
 25 APR   10 Flower Ind      56   0.10   1.7    2  3.2  0.00  0.41  0.00  0.00     0
 11 MAY   26 First Flwr     588   1.56   6.5   18  3.1  0.00  0.01  0.00  0.00     1
 14 MAY   29 First Pod      807   2.02   7.4   25  3.1  0.00  0.00  0.00  0.00     3
 21 MAY   36 First Seed    1560   2.48   9.5   48  3.1  0.00  0.00  0.00  0.00     5
 23 MAY   38 End Msnode    1811   2.51  10.1   55  3.0  0.00  0.00  0.00  0.00     5
 27 MAY   42 End Pod       2301   2.37  10.1   69  3.0  0.00  0.00  0.00  0.00     5
 30 MAY   45 End Leaf      2638   2.19  10.1   78  3.0  0.00  0.00  0.00  0.00     5
  2 JUN   48 Phys. Mat     2952   1.99  10.1   86  2.9  0.00  0.00  0.00  0.00     7
 11 JUN   57 Harv. Mat     2734   0.14  10.1   78  2.9  0.00  0.00  0.00  0.00     8
 11 JUN   57 Harvest       2734   0.14  10.1   78  2.9  0.00  0.00  0.00  0.00     8


*MAIN GROWTH AND DEVELOPMENT VARIABLES

@     VARIABLE                                         SIMULATED     MEASURED
      --------                                         ---------     --------
      Anthesis day (dap)                                      26          -99
      First pod day (dap)                                     29          -99
      First seed day (dap)                                    36          -99
      Physiological maturity day (dap)                        48          -99
      Yield at harvest maturity (kg [dm]/ha)                1533          -99
      Pod/Ear/Panicle weight at maturity (kg [dm]/ha)       2199          -99
      Number at maturity (no/m2)                             436          -99
      Unit wt at maturity (g [dm]/unit)                   0.3515          -99
      Number at maturity (no/unit)                          3.50          -99
      Tops weight at maturity (kg [dm]/ha)                  2734          -99
      By-product produced (stalk) at maturity (kg[dm]/ha    1200          -99
      Leaf area index, maximum                              2.51          -99
      Harvest index at maturity                            0.561          -99
      Threshing % at maturity                              69.71          -99
      Grain N at maturity (kg/ha)                             58          -99
      Tops N at maturity (kg/ha)                              78          -99
      Stem N at maturity (kg/ha)                               6          -99
      Grain N at maturity (%)                               3.75          -99
      Tops weight at anthesis (kg [dm]/ha)                   588          -99
      Tops N at anthesis (kg/ha)                              18          -99
      Leaf number per stem at maturity                     10.07          -99
      Grain oil at maturity (%)                             2.89          -99
      Canopy height (m)                                     0.82          -99
      Harvest maturity day (dap)                              57          -99
      Emergence day (dap)                                      5          -99


*ENVIRONMENTAL AND STRESS FACTORS

 |-----Development Phase------|--------------------------------------Environment--------------------------------------|-----------------Stress-----------------|
                              |---------------Average--------------|-----Cumulative-----|--------Count of days--------|          (0=Min, 1=Max Stress)         |
                         Time  Temp  Temp  Temp Solar Photop                Evapo    Pot TMIN TMIN TMAX TMAX TMAX RAIN|----Water----|---Nitrogen--|-Phosphorus-|
                         Span   Max   Min  Mean   Rad  [day]    CO2   Rain  Trans     ET   <    <    >    >    >    >   Photo         Photo         Photo
                         days    øC    øC    øC MJ/m2     hr    ppm     mm     mm     mm  0øC  2øC 30øC 32øC 34øC  0mm  synth Growth  synth Growth  synth Growth
----------------------------------------------------------------------------------------------------------------------------------------------------------------
 Emergence -First Flower   21  29.9  19.4  24.7  19.0  12.13  338.3   36.8    0.0    0.0    0    0   11    1    0    9  0.000  0.000  0.000  0.141  0.000  0.000
 First Flower-First Seed   10  29.4  19.6  24.5  17.8  12.17  338.4   20.5    0.0    0.0    0    0    4    1    0    5  0.000  0.000  0.000  0.000  0.000  0.000
 First Seed - Phys. Mat.   12  29.0  19.5  24.2  17.3  12.19  338.5   37.0    0.0    0.0    0    0    5    0    0    6  0.000  0.000  0.000  0.000  0.000  0.000
 Emergence  - Phys. Mat.   43  29.5  19.5  24.5  18.2  12.15  338.4   94.3    0.0    0.0    0    0   20    2    0   20  0.000  0.000  0.000  0.069  0.000  0.000


 Planting to Harvest       71  29.7  19.4  24.5  18.6  12.13  338.4  195.0    0.0    0.0    0    0   35    2    0   28  0.000  0.000  0.000  0.042  0.000  0.000
----------------------------------------------------------------------------------------------------------------------------------------------------------------

--------------------------------------------------------------------------------------------------------------

                  Dry bean YIELD :     1533 kg/ha    [Dry weight] 

**************************************************************************************************************

*DSSAT Cropping System Model Ver. 4.6.1.000 -release      JUL 11, 2017; 16:24:46
                                                                                
*RUN   2        : SIM                       CRGRO046 3\000003    1              
 MODEL          : CRGRO046 - Dry bean                                           
 EXPERIMENT     : 3\000003 BN PALMIRA_ANALISIS SENSIBILIDAD                     
 DATA PATH      : D:\B\0\00000                                                  
 TREATMENT  1   : SIM                       CRGRO046                            
                                                                                
                                                                                
 CROP           : Dry bean         CULTIVAR : Jatu Rong        ECOTYPE :ANDIND  
 STARTING DATE  : APR  2 1981                                                   
 PLANTING DATE  : APR 16 1981        PLANTS/m2 : 26.6     ROW SPACING :  60.cm  
 WEATHER        : PALM8034                                                      
 SOIL           : CCPA000030     TEXTURE : C     -   Silty Clay Loam            
 WATER BALANCE  : NOT SIMULATED ; NO H2O-STRESS                                 
 IRRIGATION     :                                                               
 NITROGEN BAL.  : NOT SIMULATED ; NO N-STRESS                                   
 N-FERTILIZER   :                                                               
 RESIDUE/MANURE :                                                               
 ENVIRONM. OPT. : DAYL=    0.00  SRAD=    0.00  TMAX=    0.00  TMIN=    0.00    
                  RAIN=    0.00  CO2 =    0.00  DEW =    0.00  WIND=    0.00    
 SIMULATION OPT : WATER   :N  NITROGEN:N  N-FIX:N  PHOSPH :N  PESTS  :N         
                  PHOTO   :L  ET      :R  INFIL:S  HYDROL :R  SOM    :G         
                  CO2 340ppm  NSWIT   :1  EVAP :S  SOIL   :2  STEMP  :D         
 MANAGEMENT OPT : PLANTING:A  IRRIG   :A  FERT :D  RESIDUE:N  HARVEST:M         
                  WEATHER :M  TILLAGE :N                                        
                                                                                
*SUMMARY OF SOIL AND GENETIC INPUT PARAMETERS                                   
                                                                                
 Dry bean   CULTIVAR :000003-Jatu Rong          ECOTYPE :ANDIND                 
 CSDVAR :12.17  PPSEN  : 0.05  EMG-FLW:20.00  FLW-FSD: 9.00  FSD-PHM : 11.00    
 WTPSD  :0.600  SDPDVR : 3.50  SDFDUR :15.00  PODDUR :10.00  XFRUIT  :  1.00    
 THRESH : 78.0  SDPRO  :0.235  SDLIP   : 0.030                                  


*SIMULATED CROP AND SOIL STATUS AT MAIN DEVELOPMENT STAGES

 RUN NO.     2     SIM                     

        CROP GROWTH     BIOMASS         LEAF   CROP N     STRESS      STRESS                                           
   DATE  AGE STAGE        kg/ha    LAI   NUM  kg/ha  %   H2O  Nitr Phos1 Phos2  RSTG                                   
 ------  --- ----------   -----  -----  ----  ---  ---  ----  ----  ----  ----  ----                                   
  2 APR    0 Start Sim        0   0.00   0.0    0  0.0  0.00  0.00  0.00  0.00     0
 16 APR    0 Sowing           0   0.00   0.0    0  0.0  0.00  0.00  0.00  0.00     0
 21 APR    5 Emergence       44   0.08   0.2    1  3.4  0.00  0.00  0.00  0.00     0
 21 APR    5 End Juven.      44   0.08   0.2    1  3.4  0.00  0.00  0.00  0.00     0
 24 APR    8 Unifoliate      48   0.09   1.1    2  3.3  0.00  0.66  0.00  0.00     0
 26 APR   10 Flower Ind      54   0.10   1.7    2  3.2  0.00  0.47  0.00  0.00     0
 13 MAY   27 First Flwr     596   1.60   6.5   18  3.1  0.00  0.02  0.00  0.00     1
 15 MAY   29 First Pod      749   1.90   7.1   23  3.1  0.00  0.00  0.00  0.00     3
 23 MAY   37 First Seed    1580   2.48   9.4   48  3.1  0.00  0.00  0.00  0.00     5
 25 MAY   39 End Msnode    1829   2.50  10.0   55  3.0  0.00  0.00  0.00  0.00     5
 29 MAY   43 End Pod       2308   2.37  10.0   68  3.0  0.00  0.00  0.00  0.00     5
  1 JUN   46 End Leaf      2645   2.19  10.0   77  2.9  0.00  0.00  0.00  0.00     5
  4 JUN   49 Phys. Mat     2983   1.98  10.0   85  2.8  0.00  0.00  0.00  0.00     7
 13 JUN   58 Harv. Mat     2730   0.14  10.0   76  2.8  0.00  0.00  0.00  0.00     8
 13 JUN   58 Harvest       2730   0.14  10.0   76  2.8  0.00  0.00  0.00  0.00     8


*MAIN GROWTH AND DEVELOPMENT VARIABLES

@     VARIABLE                                         SIMULATED     MEASURED
      --------                                         ---------     --------
      Anthesis day (dap)                                      27          -99
      First pod day (dap)                                     29          -99
      First seed day (dap)                                    37          -99
      Physiological maturity day (dap)                        49          -99
      Yield at harvest maturity (kg [dm]/ha)                1408          -99
      Pod/Ear/Panicle weight at maturity (kg [dm]/ha)       2172          -99
      Number at maturity (no/m2)                             479          -99
      Unit wt at maturity (g [dm]/unit)                   0.2938          -99
      Number at maturity (no/unit)                          3.50          -99
      Tops weight at maturity (kg [dm]/ha)                  2730          -99
      By-product produced (stalk) at maturity (kg[dm]/ha    1320          -99
      Leaf area index, maximum                              2.50          -99
      Harvest index at maturity                            0.516          -99
      Threshing % at maturity                              64.81          -99
      Grain N at maturity (kg/ha)                             53          -99
      Tops N at maturity (kg/ha)                              76          -99
      Stem N at maturity (kg/ha)                               6          -99
      Grain N at maturity (%)                               3.76          -99
      Tops weight at anthesis (kg [dm]/ha)                   596          -99
      Tops N at anthesis (kg/ha)                              18          -99
      Leaf number per stem at maturity                      9.99          -99
      Grain oil at maturity (%)                             2.91          -99
      Canopy height (m)                                     0.84          -99
      Harvest maturity day (dap)                              58          -99
      Emergence day (dap)                                      5          -99


*ENVIRONMENTAL AND STRESS FACTORS

 |-----Development Phase------|--------------------------------------Environment--------------------------------------|-----------------Stress-----------------|
                              |---------------Average--------------|-----Cumulative-----|--------Count of days--------|          (0=Min, 1=Max Stress)         |
                         Time  Temp  Temp  Temp Solar Photop                Evapo    Pot TMIN TMIN TMAX TMAX TMAX RAIN|----Water----|---Nitrogen--|-Phosphorus-|
                         Span   Max   Min  Mean   Rad  [day]    CO2   Rain  Trans     ET   <    <    >    >    >    >   Photo         Photo         Photo
                         days    øC    øC    øC MJ/m2     hr    ppm     mm     mm     mm  0øC  2øC 30øC 32øC 34øC  0mm  synth Growth  synth Growth  synth Growth
----------------------------------------------------------------------------------------------------------------------------------------------------------------
 Emergence -First Flower   22  28.1  18.9  23.5  17.6  12.13  339.7   93.0    0.0    0.0    0    0    1    0    0   15  0.000  0.000  0.000  0.145  0.000  0.000
 First Flower-First Seed   10  29.2  19.2  24.2  18.0  12.17  339.8   57.9    0.0    0.0    0    0    4    0    0    6  0.000  0.000  0.000  0.000  0.000  0.000
 First Seed - Phys. Mat.   12  28.5  19.1  23.8  17.3  12.19  339.8   60.1    0.0    0.0    0    0    1    0    0    7  0.000  0.000  0.000  0.000  0.000  0.000
 Emergence  - Phys. Mat.   44  28.5  19.0  23.7  17.6  12.15  339.8  211.0    0.0    0.0    0    0    6    0    0   28  0.000  0.000  0.000  0.073  0.000  0.000


 Planting to Harvest       72  28.6  19.2  23.9  17.7  12.14  339.7  398.5    0.0    0.0    0    0   14    0    0   44  0.000  0.000  0.000  0.044  0.000  0.000
----------------------------------------------------------------------------------------------------------------------------------------------------------------

--------------------------------------------------------------------------------------------------------------

                  Dry bean YIELD :     1408 kg/ha    [Dry weight] 

**************************************************************************************************************

*DSSAT Cropping System Model Ver. 4.6.1.000 -release      JUL 11, 2017; 16:24:46
                                                                                
*RUN   3        : SIM                       CRGRO046 3\000003    1              
 MODEL          : CRGRO046 - Dry bean                                           
 EXPERIMENT     : 3\000003 BN PALMIRA_ANALISIS SENSIBILIDAD                     
 DATA PATH      : D:\B\0\00000                                                  
 TREATMENT  1   : SIM                       CRGRO046                            
                                                                                
                                                                                
 CROP           : Dry bean         CULTIVAR : Jatu Rong        ECOTYPE :ANDIND  
 STARTING DATE  : APR  2 1982                                                   
 PLANTING DATE  : APR 16 1982        PLANTS/m2 : 26.6     ROW SPACING :  60.cm  
 WEATHER        : PALM8034                                                      
 SOIL           : CCPA000030     TEXTURE : C     -   Silty Clay Loam            
 WATER BALANCE  : NOT SIMULATED ; NO H2O-STRESS                                 
 IRRIGATION     :                                                               
 NITROGEN BAL.  : NOT SIMULATED ; NO N-STRESS                                   
 N-FERTILIZER   :                                                               
 RESIDUE/MANURE :                                                               
 ENVIRONM. OPT. : DAYL=    0.00  SRAD=    0.00  TMAX=    0.00  TMIN=    0.00    
                  RAIN=    0.00  CO2 =    0.00  DEW =    0.00  WIND=    0.00    
 SIMULATION OPT : WATER   :N  NITROGEN:N  N-FIX:N  PHOSPH :N  PESTS  :N         
                  PHOTO   :L  ET      :R  INFIL:S  HYDROL :R  SOM    :G         
                  CO2 341ppm  NSWIT   :1  EVAP :S  SOIL   :2  STEMP  :D         
 MANAGEMENT OPT : PLANTING:A  IRRIG   :A  FERT :D  RESIDUE:N  HARVEST:M         
                  WEATHER :M  TILLAGE :N                                        
                                                                                
*SUMMARY OF SOIL AND GENETIC INPUT PARAMETERS                                   
                                                                                
 Dry bean   CULTIVAR :000003-Jatu Rong          ECOTYPE :ANDIND                 
 CSDVAR :12.17  PPSEN  : 0.05  EMG-FLW:20.00  FLW-FSD: 9.00  FSD-PHM : 11.00    
 WTPSD  :0.600  SDPDVR : 3.50  SDFDUR :15.00  PODDUR :10.00  XFRUIT  :  1.00    
 THRESH : 78.0  SDPRO  :0.235  SDLIP   : 0.030                                  


*SIMULATED CROP AND SOIL STATUS AT MAIN DEVELOPMENT STAGES

 RUN NO.     3     SIM                     

        CROP GROWTH     BIOMASS         LEAF   CROP N     STRESS      STRESS                                           
   DATE  AGE STAGE        kg/ha    LAI   NUM  kg/ha  %   H2O  Nitr Phos1 Phos2  RSTG                                   
 ------  --- ----------   -----  -----  ----  ---  ---  ----  ----  ----  ----  ----                                   
  2 APR    0 Start Sim        0   0.00   0.0    0  0.0  0.00  0.00  0.00  0.00     0
 16 APR    0 Sowing           0   0.00   0.0    0  0.0  0.00  0.00  0.00  0.00     0
 21 APR    5 Emergence       44   0.08   0.2    1  3.4  0.00  0.00  0.00  0.00     0
 21 APR    5 End Juven.      44   0.08   0.2    1  3.4  0.00  0.00  0.00  0.00     0
 24 APR    8 Unifoliate      49   0.09   1.1    2  3.3  0.00  0.65  0.00  0.00     0
 26 APR   10 Flower Ind      55   0.10   1.7    2  3.2  0.00  0.44  0.00  0.00     0
 12 MAY   26 First Flwr     560   1.52   6.4   17  3.0  0.00  0.01  0.00  0.00     1
 15 MAY   29 First Pod      789   1.98   7.3   25  3.1  0.00  0.00  0.00  0.00     3
 22 MAY   36 First Seed    1504   2.45   9.3   46  3.1  0.00  0.00  0.00  0.00     5
 24 MAY   38 End Msnode    1756   2.47   9.9   53  3.0  0.00  0.00  0.00  0.00     5
 29 MAY   43 End Pod       2330   2.31   9.9   70  3.0  0.00  0.00  0.00  0.00     5
  1 JUN   46 End Leaf      2670   2.12   9.9   78  2.9  0.00  0.00  0.00  0.00     5
  4 JUN   49 Phys. Mat     2976   1.92   9.9   85  2.9  0.00  0.00  0.00  0.00     7
 13 JUN   58 Harv. Mat     2781   0.13   9.9   79  2.9  0.00  0.00  0.00  0.00     8
 13 JUN   58 Harvest       2781   0.13   9.9   79  2.9  0.00  0.00  0.00  0.00     8


*MAIN GROWTH AND DEVELOPMENT VARIABLES

@     VARIABLE                                         SIMULATED     MEASURED
      --------                                         ---------     --------
      Anthesis day (dap)                                      26          -99
      First pod day (dap)                                     29          -99
      First seed day (dap)                                    36          -99
      Physiological maturity day (dap)                        49          -99
      Yield at harvest maturity (kg [dm]/ha)                1510          -99
      Pod/Ear/Panicle weight at maturity (kg [dm]/ha)       2270          -99
      Number at maturity (no/m2)                             481          -99
      Unit wt at maturity (g [dm]/unit)                   0.3141          -99
      Number at maturity (no/unit)                          3.50          -99
      Tops weight at maturity (kg [dm]/ha)                  2781          -99
      By-product produced (stalk) at maturity (kg[dm]/ha    1270          -99
      Leaf area index, maximum                              2.47          -99
      Harvest index at maturity                            0.543          -99
      Threshing % at maturity                              66.52          -99
      Grain N at maturity (kg/ha)                             57          -99
      Tops N at maturity (kg/ha)                              79          -99
      Stem N at maturity (kg/ha)                               6          -99
      Grain N at maturity (%)                               3.79          -99
      Tops weight at anthesis (kg [dm]/ha)                   560          -99
      Tops N at anthesis (kg/ha)                              17          -99
      Leaf number per stem at maturity                      9.91          -99
      Grain oil at maturity (%)                             2.88          -99
      Canopy height (m)                                     0.83          -99
      Harvest maturity day (dap)                              58          -99
      Emergence day (dap)                                      5          -99


*ENVIRONMENTAL AND STRESS FACTORS

 |-----Development Phase------|--------------------------------------Environment--------------------------------------|-----------------Stress-----------------|
                              |---------------Average--------------|-----Cumulative-----|--------Count of days--------|          (0=Min, 1=Max Stress)         |
                         Time  Temp  Temp  Temp Solar Photop                Evapo    Pot TMIN TMIN TMAX TMAX TMAX RAIN|----Water----|---Nitrogen--|-Phosphorus-|
                         Span   Max   Min  Mean   Rad  [day]    CO2   Rain  Trans     ET   <    <    >    >    >    >   Photo         Photo         Photo
                         days    øC    øC    øC MJ/m2     hr    ppm     mm     mm     mm  0øC  2øC 30øC 32øC 34øC  0mm  synth Growth  synth Growth  synth Growth
----------------------------------------------------------------------------------------------------------------------------------------------------------------
 Emergence -First Flower   21  29.3  19.3  24.3  18.4  12.13  340.9   57.5    0.0    0.0    0    0    8    1    0    8  0.000  0.000  0.000  0.143  0.000  0.000
 First Flower-First Seed   10  28.8  19.4  24.1  17.5  12.17  341.0   55.9    0.0    0.0    0    0    3    1    0    5  0.000  0.000  0.000  0.000  0.000  0.000
 First Seed - Phys. Mat.   13  28.4  19.4  23.9  16.8  12.19  341.0    8.8    0.0    0.0    0    0    2    0    0    3  0.000  0.000  0.000  0.000  0.000  0.000
 Emergence  - Phys. Mat.   44  28.9  19.4  24.1  17.8  12.15  340.9  122.2    0.0    0.0    0    0   13    2    0   16  0.000  0.000  0.000  0.068  0.000  0.000


 Planting to Harvest       72  29.0  19.3  24.2  18.0  12.14  340.9  260.9    0.0    0.0    0    0   21    2    0   29  0.000  0.000  0.000  0.042  0.000  0.000
----------------------------------------------------------------------------------------------------------------------------------------------------------------

--------------------------------------------------------------------------------------------------------------

                  Dry bean YIELD :     1510 kg/ha    [Dry weight] 

**************************************************************************************************************

*DSSAT Cropping System Model Ver. 4.6.1.000 -release      JUL 11, 2017; 16:24:46
                                                                                
*RUN   4        : SIM                       CRGRO046 3\000003    1              
 MODEL          : CRGRO046 - Dry bean                                           
 EXPERIMENT     : 3\000003 BN PALMIRA_ANALISIS SENSIBILIDAD                     
 DATA PATH      : D:\B\0\00000                                                  
 TREATMENT  1   : SIM                       CRGRO046                            
                                                                                
                                                                                
 CROP           : Dry bean         CULTIVAR : Jatu Rong        ECOTYPE :ANDIND  
 STARTING DATE  : APR  2 1983                                                   
 PLANTING DATE  : APR 16 1983        PLANTS/m2 : 26.6     ROW SPACING :  60.cm  
 WEATHER        : PALM8034                                                      
 SOIL           : CCPA000030     TEXTURE : C     -   Silty Clay Loam            
 WATER BALANCE  : NOT SIMULATED ; NO H2O-STRESS                                 
 IRRIGATION     :                                                               
 NITROGEN BAL.  : NOT SIMULATED ; NO N-STRESS                                   
 N-FERTILIZER   :                                                               
 RESIDUE/MANURE :                                                               
 ENVIRONM. OPT. : DAYL=    0.00  SRAD=    0.00  TMAX=    0.00  TMIN=    0.00    
                  RAIN=    0.00  CO2 =    0.00  DEW =    0.00  WIND=    0.00    
 SIMULATION OPT : WATER   :N  NITROGEN:N  N-FIX:N  PHOSPH :N  PESTS  :N         
                  PHOTO   :L  ET      :R  INFIL:S  HYDROL :R  SOM    :G         
                  CO2 342ppm  NSWIT   :1  EVAP :S  SOIL   :2  STEMP  :D         
 MANAGEMENT OPT : PLANTING:A  IRRIG   :A  FERT :D  RESIDUE:N  HARVEST:M         
                  WEATHER :M  TILLAGE :N                                        
                                                                                
*SUMMARY OF SOIL AND GENETIC INPUT PARAMETERS                                   
                                                                                
 Dry bean   CULTIVAR :000003-Jatu Rong          ECOTYPE :ANDIND                 
 CSDVAR :12.17  PPSEN  : 0.05  EMG-FLW:20.00  FLW-FSD: 9.00  FSD-PHM : 11.00    
 WTPSD  :0.600  SDPDVR : 3.50  SDFDUR :15.00  PODDUR :10.00  XFRUIT  :  1.00    
 THRESH : 78.0  SDPRO  :0.235  SDLIP   : 0.030                                  


*SIMULATED CROP AND SOIL STATUS AT MAIN DEVELOPMENT STAGES

 RUN NO.     4     SIM                     

        CROP GROWTH     BIOMASS         LEAF   CROP N     STRESS      STRESS                                           
   DATE  AGE STAGE        kg/ha    LAI   NUM  kg/ha  %   H2O  Nitr Phos1 Phos2  RSTG                                   
 ------  --- ----------   -----  -----  ----  ---  ---  ----  ----  ----  ----  ----                                   
  2 APR    0 Start Sim        0   0.00   0.0    0  0.0  0.00  0.00  0.00  0.00     0
 16 APR    0 Sowing           0   0.00   0.0    0  0.0  0.00  0.00  0.00  0.00     0
 21 APR    5 Emergence       44   0.08   0.2    1  3.4  0.00  0.00  0.00  0.00     0
 21 APR    5 End Juven.      44   0.08   0.2    1  3.4  0.00  0.00  0.00  0.00     0
 24 APR    8 Unifoliate      48   0.09   1.1    2  3.3  0.00  0.66  0.00  0.00     0
 26 APR   10 Flower Ind      55   0.10   1.7    2  3.2  0.00  0.43  0.00  0.00     0
 12 MAY   26 First Flwr     582   1.59   6.5   18  3.1  0.00  0.01  0.00  0.00     1
 15 MAY   29 First Pod      818   2.02   7.4   26  3.1  0.00  0.00  0.00  0.00     3
 22 MAY   36 First Seed    1577   2.48   9.5   48  3.1  0.00  0.00  0.00  0.00     5
 24 MAY   38 End Msnode    1835   2.50  10.1   55  3.0  0.00  0.00  0.00  0.00     5
 28 MAY   42 End Pod       2328   2.36  10.1   70  3.0  0.00  0.00  0.00  0.00     5
 31 MAY   45 End Leaf      2674   2.18  10.1   79  2.9  0.00  0.00  0.00  0.00     5
  3 JUN   48 Phys. Mat     2990   1.97  10.1   86  2.9  0.00  0.00  0.00  0.00     7
 12 JUN   57 Harv. Mat     2763   0.13  10.1   78  2.8  0.00  0.00  0.00  0.00     8
 12 JUN   57 Harvest       2763   0.13  10.1   78  2.8  0.00  0.00  0.00  0.00     8


*MAIN GROWTH AND DEVELOPMENT VARIABLES

@     VARIABLE                                         SIMULATED     MEASURED
      --------                                         ---------     --------
      Anthesis day (dap)                                      26          -99
      First pod day (dap)                                     29          -99
      First seed day (dap)                                    36          -99
      Physiological maturity day (dap)                        48          -99
      Yield at harvest maturity (kg [dm]/ha)                1468          -99
      Pod/Ear/Panicle weight at maturity (kg [dm]/ha)       2215          -99
      Number at maturity (no/m2)                             484          -99
      Unit wt at maturity (g [dm]/unit)                   0.3032          -99
      Number at maturity (no/unit)                          3.50          -99
      Tops weight at maturity (kg [dm]/ha)                  2763          -99
      By-product produced (stalk) at maturity (kg[dm]/ha    1290          -99
      Leaf area index, maximum                              2.50          -99
      Harvest index at maturity                            0.532          -99
      Threshing % at maturity                              66.29          -99
      Grain N at maturity (kg/ha)                             55          -99
      Tops N at maturity (kg/ha)                              78          -99
      Stem N at maturity (kg/ha)                               6          -99
      Grain N at maturity (%)                               3.78          -99
      Tops weight at anthesis (kg [dm]/ha)                   582          -99
      Tops N at anthesis (kg/ha)                              18          -99
      Leaf number per stem at maturity                     10.10          -99
      Grain oil at maturity (%)                             2.89          -99
      Canopy height (m)                                     0.82          -99
      Harvest maturity day (dap)                              57          -99
      Emergence day (dap)                                      5          -99


*ENVIRONMENTAL AND STRESS FACTORS

 |-----Development Phase------|--------------------------------------Environment--------------------------------------|-----------------Stress-----------------|
                              |---------------Average--------------|-----Cumulative-----|--------Count of days--------|          (0=Min, 1=Max Stress)         |
                         Time  Temp  Temp  Temp Solar Photop                Evapo    Pot TMIN TMIN TMAX TMAX TMAX RAIN|----Water----|---Nitrogen--|-Phosphorus-|
                         Span   Max   Min  Mean   Rad  [day]    CO2   Rain  Trans     ET   <    <    >    >    >    >   Photo         Photo         Photo
                         days    øC    øC    øC MJ/m2     hr    ppm     mm     mm     mm  0øC  2øC 30øC 32øC 34øC  0mm  synth Growth  synth Growth  synth Growth
----------------------------------------------------------------------------------------------------------------------------------------------------------------
 Emergence -First Flower   21  29.7  19.8  24.8  18.4  12.13  342.3   40.2    0.0    0.0    0    0   10    0    0    7  0.000  0.000  0.000  0.145  0.000  0.000
 First Flower-First Seed   10  29.5  19.5  24.5  18.2  12.17  342.5   65.4    0.0    0.0    0    0    3    0    0    7  0.000  0.000  0.000  0.000  0.000  0.000
 First Seed - Phys. Mat.   12  29.7  19.6  24.6  18.0  12.19  342.5    8.2    0.0    0.0    0    0    6    0    0    2  0.000  0.000  0.000  0.000  0.000  0.000
 Emergence  - Phys. Mat.   43  29.7  19.7  24.7  18.2  12.15  342.4  113.8    0.0    0.0    0    0   19    0    0   16  0.000  0.000  0.000  0.071  0.000  0.000


 Planting to Harvest       71  29.5  19.6  24.5  18.2  12.13  342.4  226.3    0.0    0.0    0    0   26    0    0   34  0.000  0.000  0.000  0.043  0.000  0.000
----------------------------------------------------------------------------------------------------------------------------------------------------------------

--------------------------------------------------------------------------------------------------------------

                  Dry bean YIELD :     1468 kg/ha    [Dry weight] 

**************************************************************************************************************

*DSSAT Cropping System Model Ver. 4.6.1.000 -release      JUL 11, 2017; 16:24:46
                                                                                
*RUN   5        : SIM                       CRGRO046 3\000003    1              
 MODEL          : CRGRO046 - Dry bean                                           
 EXPERIMENT     : 3\000003 BN PALMIRA_ANALISIS SENSIBILIDAD                     
 DATA PATH      : D:\B\0\00000                                                  
 TREATMENT  1   : SIM                       CRGRO046                            
                                                                                
                                                                                
 CROP           : Dry bean         CULTIVAR : Jatu Rong        ECOTYPE :ANDIND  
 STARTING DATE  : APR  1 1984                                                   
 PLANTING DATE  : APR 15 1984        PLANTS/m2 : 26.6     ROW SPACING :  60.cm  
 WEATHER        : PALM8034                                                      
 SOIL           : CCPA000030     TEXTURE : C     -   Silty Clay Loam            
 WATER BALANCE  : NOT SIMULATED ; NO H2O-STRESS                                 
 IRRIGATION     :                                                               
 NITROGEN BAL.  : NOT SIMULATED ; NO N-STRESS                                   
 N-FERTILIZER   :                                                               
 RESIDUE/MANURE :                                                               
 ENVIRONM. OPT. : DAYL=    0.00  SRAD=    0.00  TMAX=    0.00  TMIN=    0.00    
                  RAIN=    0.00  CO2 =    0.00  DEW =    0.00  WIND=    0.00    
 SIMULATION OPT : WATER   :N  NITROGEN:N  N-FIX:N  PHOSPH :N  PESTS  :N         
                  PHOTO   :L  ET      :R  INFIL:S  HYDROL :R  SOM    :G         
                  CO2 344ppm  NSWIT   :1  EVAP :S  SOIL   :2  STEMP  :D         
 MANAGEMENT OPT : PLANTING:A  IRRIG   :A  FERT :D  RESIDUE:N  HARVEST:M         
                  WEATHER :M  TILLAGE :N                                        
                                                                                
*SUMMARY OF SOIL AND GENETIC INPUT PARAMETERS                                   
                                                                                
 Dry bean   CULTIVAR :000003-Jatu Rong          ECOTYPE :ANDIND                 
 CSDVAR :12.17  PPSEN  : 0.05  EMG-FLW:20.00  FLW-FSD: 9.00  FSD-PHM : 11.00    
 WTPSD  :0.600  SDPDVR : 3.50  SDFDUR :15.00  PODDUR :10.00  XFRUIT  :  1.00    
 THRESH : 78.0  SDPRO  :0.235  SDLIP   : 0.030                                  


*SIMULATED CROP AND SOIL STATUS AT MAIN DEVELOPMENT STAGES

 RUN NO.     5     SIM                     

        CROP GROWTH     BIOMASS         LEAF   CROP N     STRESS      STRESS                                           
   DATE  AGE STAGE        kg/ha    LAI   NUM  kg/ha  %   H2O  Nitr Phos1 Phos2  RSTG                                   
 ------  --- ----------   -----  -----  ----  ---  ---  ----  ----  ----  ----  ----                                   
  1 APR    0 Start Sim        0   0.00   0.0    0  0.0  0.00  0.00  0.00  0.00     0
 15 APR    0 Sowing           0   0.00   0.0    0  0.0  0.00  0.00  0.00  0.00     0
 20 APR    5 Emergence       44   0.08   0.2    1  3.4  0.00  0.00  0.00  0.00     0
 20 APR    5 End Juven.      44   0.08   0.2    1  3.4  0.00  0.00  0.00  0.00     0
 23 APR    8 Unifoliate      49   0.09   1.1    2  3.3  0.00  0.64  0.00  0.00     0
 25 APR   10 Flower Ind      55   0.10   1.7    2  3.2  0.00  0.45  0.00  0.00     0
 12 MAY   27 First Flwr     628   1.66   6.6   19  3.1  0.00  0.01  0.00  0.00     1
 14 MAY   29 First Pod      782   1.96   7.1   24  3.1  0.00  0.00  0.00  0.00     3
 21 MAY   36 First Seed    1512   2.50   9.2   46  3.1  0.00  0.00  0.00  0.00     5
 24 MAY   39 End Msnode    1893   2.54  10.0   57  3.0  0.00  0.00  0.00  0.00     5
 29 MAY   44 End Pod       2481   2.35  10.0   73  3.0  0.00  0.00  0.00  0.00     5
  1 JUN   47 End Leaf      2828   2.16  10.0   82  2.9  0.00  0.00  0.00  0.00     5
  3 JUN   49 Phys. Mat     3052   2.02  10.0   87  2.9  0.00  0.00  0.00  0.00     7
 12 JUN   58 Harv. Mat     2794   0.14  10.0   78  2.8  0.00  0.00  0.00  0.00     8
 12 JUN   58 Harvest       2794   0.14  10.0   78  2.8  0.00  0.00  0.00  0.00     8


*MAIN GROWTH AND DEVELOPMENT VARIABLES

@     VARIABLE                                         SIMULATED     MEASURED
      --------                                         ---------     --------
      Anthesis day (dap)                                      27          -99
      First pod day (dap)                                     29          -99
      First seed day (dap)                                    36          -99
      Physiological maturity day (dap)                        49          -99
      Yield at harvest maturity (kg [dm]/ha)                1465          -99
      Pod/Ear/Panicle weight at maturity (kg [dm]/ha)       2226          -99
      Number at maturity (no/m2)                             487          -99
      Unit wt at maturity (g [dm]/unit)                   0.3008          -99
      Number at maturity (no/unit)                          3.50          -99
      Tops weight at maturity (kg [dm]/ha)                  2794          -99
      By-product produced (stalk) at maturity (kg[dm]/ha    1330          -99
      Leaf area index, maximum                              2.54          -99
      Harvest index at maturity                            0.524          -99
      Threshing % at maturity                              65.80          -99
      Grain N at maturity (kg/ha)                             55          -99
      Tops N at maturity (kg/ha)                              78          -99
      Stem N at maturity (kg/ha)                               6          -99
      Grain N at maturity (%)                               3.74          -99
      Tops weight at anthesis (kg [dm]/ha)                   628          -99
      Tops N at anthesis (kg/ha)                              19          -99
      Leaf number per stem at maturity                     10.04          -99
      Grain oil at maturity (%)                             2.91          -99
      Canopy height (m)                                     0.81          -99
      Harvest maturity day (dap)                              58          -99
      Emergence day (dap)                                      5          -99


*ENVIRONMENTAL AND STRESS FACTORS

 |-----Development Phase------|--------------------------------------Environment--------------------------------------|-----------------Stress-----------------|
                              |---------------Average--------------|-----Cumulative-----|--------Count of days--------|          (0=Min, 1=Max Stress)         |
                         Time  Temp  Temp  Temp Solar Photop                Evapo    Pot TMIN TMIN TMAX TMAX TMAX RAIN|----Water----|---Nitrogen--|-Phosphorus-|
                         Span   Max   Min  Mean   Rad  [day]    CO2   Rain  Trans     ET   <    <    >    >    >    >   Photo         Photo         Photo
                         days    øC    øC    øC MJ/m2     hr    ppm     mm     mm     mm  0øC  2øC 30øC 32øC 34øC  0mm  synth Growth  synth Growth  synth Growth
----------------------------------------------------------------------------------------------------------------------------------------------------------------
 Emergence -First Flower   22  28.5  18.8  23.6  18.1  12.13  344.1   64.5    0.0    0.0    0    0    2    0    0   11  0.000  0.000  0.000  0.136  0.000  0.000
 First Flower-First Seed    9  28.5  18.8  23.6  17.8  12.17  344.2   11.6    0.0    0.0    0    0    1    0    0    5  0.000  0.000  0.000  0.000  0.000  0.000
 First Seed - Phys. Mat.   13  27.9  18.9  23.4  16.9  12.19  344.3   48.0    0.0    0.0    0    0    3    0    0    8  0.000  0.000  0.000  0.000  0.000  0.000
 Emergence  - Phys. Mat.   44  28.3  18.8  23.6  17.7  12.15  344.2  124.1    0.0    0.0    0    0    6    0    0   24  0.000  0.000  0.000  0.068  0.000  0.000


 Planting to Harvest       72  28.5  18.8  23.7  18.0  12.14  344.2  195.8    0.0    0.0    0    0   12    0    0   38  0.000  0.000  0.000  0.042  0.000  0.000
----------------------------------------------------------------------------------------------------------------------------------------------------------------

--------------------------------------------------------------------------------------------------------------

                  Dry bean YIELD :     1465 kg/ha    [Dry weight] 

**************************************************************************************************************

*DSSAT Cropping System Model Ver. 4.6.1.000 -release      JUL 11, 2017; 16:24:46
                                                                                
*RUN   6        : SIM                       CRGRO046 3\000003    1              
 MODEL          : CRGRO046 - Dry bean                                           
 EXPERIMENT     : 3\000003 BN PALMIRA_ANALISIS SENSIBILIDAD                     
 DATA PATH      : D:\B\0\00000                                                  
 TREATMENT  1   : SIM                       CRGRO046                            
                                                                                
                                                                                
 CROP           : Dry bean         CULTIVAR : Jatu Rong        ECOTYPE :ANDIND  
 STARTING DATE  : APR  2 1985                                                   
 PLANTING DATE  : APR 16 1985        PLANTS/m2 : 26.6     ROW SPACING :  60.cm  
 WEATHER        : PALM8034                                                      
 SOIL           : CCPA000030     TEXTURE : C     -   Silty Clay Loam            
 WATER BALANCE  : NOT SIMULATED ; NO H2O-STRESS                                 
 IRRIGATION     :                                                               
 NITROGEN BAL.  : NOT SIMULATED ; NO N-STRESS                                   
 N-FERTILIZER   :                                                               
 RESIDUE/MANURE :                                                               
 ENVIRONM. OPT. : DAYL=    0.00  SRAD=    0.00  TMAX=    0.00  TMIN=    0.00    
                  RAIN=    0.00  CO2 =    0.00  DEW =    0.00  WIND=    0.00    
 SIMULATION OPT : WATER   :N  NITROGEN:N  N-FIX:N  PHOSPH :N  PESTS  :N         
                  PHOTO   :L  ET      :R  INFIL:S  HYDROL :R  SOM    :G         
                  CO2 346ppm  NSWIT   :1  EVAP :S  SOIL   :2  STEMP  :D         
 MANAGEMENT OPT : PLANTING:A  IRRIG   :A  FERT :D  RESIDUE:N  HARVEST:M         
                  WEATHER :M  TILLAGE :N                                        
                                                                                
*SUMMARY OF SOIL AND GENETIC INPUT PARAMETERS                                   
                                                                                
 Dry bean   CULTIVAR :000003-Jatu Rong          ECOTYPE :ANDIND                 
 CSDVAR :12.17  PPSEN  : 0.05  EMG-FLW:20.00  FLW-FSD: 9.00  FSD-PHM : 11.00    
 WTPSD  :0.600  SDPDVR : 3.50  SDFDUR :15.00  PODDUR :10.00  XFRUIT  :  1.00    
 THRESH : 78.0  SDPRO  :0.235  SDLIP   : 0.030                                  


*SIMULATED CROP AND SOIL STATUS AT MAIN DEVELOPMENT STAGES

 RUN NO.     6     SIM                     

        CROP GROWTH     BIOMASS         LEAF   CROP N     STRESS      STRESS                                           
   DATE  AGE STAGE        kg/ha    LAI   NUM  kg/ha  %   H2O  Nitr Phos1 Phos2  RSTG                                   
 ------  --- ----------   -----  -----  ----  ---  ---  ----  ----  ----  ----  ----                                   
  2 APR    0 Start Sim        0   0.00   0.0    0  0.0  0.00  0.00  0.00  0.00     0
 16 APR    0 Sowing           0   0.00   0.0    0  0.0  0.00  0.00  0.00  0.00     0
 21 APR    5 Emergence       44   0.08   0.2    1  3.4  0.00  0.00  0.00  0.00     0
 21 APR    5 End Juven.      44   0.08   0.2    1  3.4  0.00  0.00  0.00  0.00     0
 24 APR    8 Unifoliate      48   0.09   1.1    2  3.3  0.00  0.66  0.00  0.00     0
 26 APR   10 Flower Ind      55   0.10   1.6    2  3.2  0.00  0.43  0.00  0.00     0
 13 MAY   27 First Flwr     637   1.66   6.5   19  3.1  0.00  0.01  0.00  0.00     1
 15 MAY   29 First Pod      798   1.97   7.1   25  3.1  0.00  0.00  0.00  0.00     3
 23 MAY   37 First Seed    1665   2.58   9.5   51  3.1  0.00  0.00  0.00  0.00     5
 25 MAY   39 End Msnode    1933   2.60  10.1   58  3.0  0.00  0.00  0.00  0.00     5
 29 MAY   43 End Pod       2435   2.46  10.1   72  3.0  0.00  0.00  0.00  0.00     5
  1 JUN   46 End Leaf      2775   2.26  10.1   81  2.9  0.00  0.00  0.00  0.00     5
  4 JUN   49 Phys. Mat     3119   2.06  10.1   89  2.9  0.00  0.00  0.00  0.00     7
 13 JUN   58 Harv. Mat     2874   0.14  10.1   81  2.8  0.00  0.00  0.00  0.00     8
 13 JUN   58 Harvest       2874   0.14  10.1   81  2.8  0.00  0.00  0.00  0.00     8


*MAIN GROWTH AND DEVELOPMENT VARIABLES

@     VARIABLE                                         SIMULATED     MEASURED
      --------                                         ---------     --------
      Anthesis day (dap)                                      27          -99
      First pod day (dap)                                     29          -99
      First seed day (dap)                                    37          -99
      Physiological maturity day (dap)                        49          -99
      Yield at harvest maturity (kg [dm]/ha)                1574          -99
      Pod/Ear/Panicle weight at maturity (kg [dm]/ha)       2280          -99
      Number at maturity (no/m2)                             451          -99
      Unit wt at maturity (g [dm]/unit)                   0.3489          -99
      Number at maturity (no/unit)                          3.50          -99
      Tops weight at maturity (kg [dm]/ha)                  2874          -99
      By-product produced (stalk) at maturity (kg[dm]/ha    1300          -99
      Leaf area index, maximum                              2.60          -99
      Harvest index at maturity                            0.548          -99
      Threshing % at maturity                              69.04          -99
      Grain N at maturity (kg/ha)                             59          -99
      Tops N at maturity (kg/ha)                              81          -99
      Stem N at maturity (kg/ha)                               7          -99
      Grain N at maturity (%)                               3.74          -99
      Tops weight at anthesis (kg [dm]/ha)                   637          -99
      Tops N at anthesis (kg/ha)                              19          -99
      Leaf number per stem at maturity                     10.06          -99
      Grain oil at maturity (%)                             2.90          -99
      Canopy height (m)                                     0.81          -99
      Harvest maturity day (dap)                              58          -99
      Emergence day (dap)                                      5          -99


*ENVIRONMENTAL AND STRESS FACTORS

 |-----Development Phase------|--------------------------------------Environment--------------------------------------|-----------------Stress-----------------|
                              |---------------Average--------------|-----Cumulative-----|--------Count of days--------|          (0=Min, 1=Max Stress)         |
                         Time  Temp  Temp  Temp Solar Photop                Evapo    Pot TMIN TMIN TMAX TMAX TMAX RAIN|----Water----|---Nitrogen--|-Phosphorus-|
                         Span   Max   Min  Mean   Rad  [day]    CO2   Rain  Trans     ET   <    <    >    >    >    >   Photo         Photo         Photo
                         days    øC    øC    øC MJ/m2     hr    ppm     mm     mm     mm  0øC  2øC 30øC 32øC 34øC  0mm  synth Growth  synth Growth  synth Growth
----------------------------------------------------------------------------------------------------------------------------------------------------------------
 Emergence -First Flower   22  29.1  18.5  23.8  19.0  12.13  345.6   63.0    0.0    0.0    0    0    5    0    0   11  0.000  0.000  0.000  0.137  0.000  0.000
 First Flower-First Seed   10  29.0  19.0  24.0  18.0  12.17  345.7   24.5    0.0    0.0    0    0    3    0    0    7  0.000  0.000  0.000  0.000  0.000  0.000
 First Seed - Phys. Mat.   12  29.2  19.5  24.3  17.5  12.19  345.7   22.3    0.0    0.0    0    0    3    0    0    3  0.000  0.000  0.000  0.000  0.000  0.000
 Emergence  - Phys. Mat.   44  29.1  18.9  24.0  18.4  12.15  345.7  109.8    0.0    0.0    0    0   11    0    0   21  0.000  0.000  0.000  0.068  0.000  0.000


 Planting to Harvest       72  29.2  18.9  24.0  18.6  12.14  345.7  157.3    0.0    0.0    0    0   20    0    0   30  0.000  0.000  0.000  0.042  0.000  0.000
----------------------------------------------------------------------------------------------------------------------------------------------------------------

--------------------------------------------------------------------------------------------------------------

                  Dry bean YIELD :     1574 kg/ha    [Dry weight] 

**************************************************************************************************************

*DSSAT Cropping System Model Ver. 4.6.1.000 -release      JUL 11, 2017; 16:24:46
                                                                                
*RUN   7        : SIM                       CRGRO046 3\000003    1              
 MODEL          : CRGRO046 - Dry bean                                           
 EXPERIMENT     : 3\000003 BN PALMIRA_ANALISIS SENSIBILIDAD                     
 DATA PATH      : D:\B\0\00000                                                  
 TREATMENT  1   : SIM                       CRGRO046                            
                                                                                
                                                                                
 CROP           : Dry bean         CULTIVAR : Jatu Rong        ECOTYPE :ANDIND  
 STARTING DATE  : APR  2 1986                                                   
 PLANTING DATE  : APR 16 1986        PLANTS/m2 : 26.6     ROW SPACING :  60.cm  
 WEATHER        : PALM8034                                                      
 SOIL           : CCPA000030     TEXTURE : C     -   Silty Clay Loam            
 WATER BALANCE  : NOT SIMULATED ; NO H2O-STRESS                                 
 IRRIGATION     :                                                               
 NITROGEN BAL.  : NOT SIMULATED ; NO N-STRESS                                   
 N-FERTILIZER   :                                                               
 RESIDUE/MANURE :                                                               
 ENVIRONM. OPT. : DAYL=    0.00  SRAD=    0.00  TMAX=    0.00  TMIN=    0.00    
                  RAIN=    0.00  CO2 =    0.00  DEW =    0.00  WIND=    0.00    
 SIMULATION OPT : WATER   :N  NITROGEN:N  N-FIX:N  PHOSPH :N  PESTS  :N         
                  PHOTO   :L  ET      :R  INFIL:S  HYDROL :R  SOM    :G         
                  CO2 347ppm  NSWIT   :1  EVAP :S  SOIL   :2  STEMP  :D         
 MANAGEMENT OPT : PLANTING:A  IRRIG   :A  FERT :D  RESIDUE:N  HARVEST:M         
                  WEATHER :M  TILLAGE :N                                        
                                                                                
*SUMMARY OF SOIL AND GENETIC INPUT PARAMETERS                                   
                                                                                
 Dry bean   CULTIVAR :000003-Jatu Rong          ECOTYPE :ANDIND                 
 CSDVAR :12.17  PPSEN  : 0.05  EMG-FLW:20.00  FLW-FSD: 9.00  FSD-PHM : 11.00    
 WTPSD  :0.600  SDPDVR : 3.50  SDFDUR :15.00  PODDUR :10.00  XFRUIT  :  1.00    
 THRESH : 78.0  SDPRO  :0.235  SDLIP   : 0.030                                  


*SIMULATED CROP AND SOIL STATUS AT MAIN DEVELOPMENT STAGES

 RUN NO.     7     SIM                     

        CROP GROWTH     BIOMASS         LEAF   CROP N     STRESS      STRESS                                           
   DATE  AGE STAGE        kg/ha    LAI   NUM  kg/ha  %   H2O  Nitr Phos1 Phos2  RSTG                                   
 ------  --- ----------   -----  -----  ----  ---  ---  ----  ----  ----  ----  ----                                   
  2 APR    0 Start Sim        0   0.00   0.0    0  0.0  0.00  0.00  0.00  0.00     0
 16 APR    0 Sowing           0   0.00   0.0    0  0.0  0.00  0.00  0.00  0.00     0
 21 APR    5 Emergence       44   0.08   0.2    1  3.4  0.00  0.00  0.00  0.00     0
 21 APR    5 End Juven.      44   0.08   0.2    1  3.4  0.00  0.00  0.00  0.00     0
 24 APR    8 Unifoliate      48   0.09   1.1    2  3.3  0.00  0.66  0.00  0.00     0
 26 APR   10 Flower Ind      55   0.10   1.7    2  3.2  0.00  0.44  0.00  0.00     0
 12 MAY   26 First Flwr     594   1.56   6.5   18  3.1  0.00  0.01  0.00  0.00     1
 15 MAY   29 First Pod      838   2.00   7.4   26  3.1  0.00  0.00  0.00  0.00     3
 22 MAY   36 First Seed    1631   2.51   9.5   50  3.1  0.00  0.00  0.00  0.00     5
 24 MAY   38 End Msnode    1900   2.53  10.1   58  3.0  0.00  0.00  0.00  0.00     5
 29 MAY   43 End Pod       2529   2.36  10.1   74  2.9  0.00  0.00  0.00  0.00     5
 31 MAY   45 End Leaf      2766   2.23  10.1   80  2.9  0.00  0.00  0.00  0.00     5
  3 JUN   48 Phys. Mat     3098   2.03  10.1   88  2.8  0.00  0.00  0.00  0.00     7
 12 JUN   57 Harv. Mat     2813   0.14  10.1   78  2.8  0.00  0.00  0.00  0.00     8
 12 JUN   57 Harvest       2813   0.14  10.1   78  2.8  0.00  0.00  0.00  0.00     8


*MAIN GROWTH AND DEVELOPMENT VARIABLES

@     VARIABLE                                         SIMULATED     MEASURED
      --------                                         ---------     --------
      Anthesis day (dap)                                      26          -99
      First pod day (dap)                                     29          -99
      First seed day (dap)                                    36          -99
      Physiological maturity day (dap)                        48          -99
      Yield at harvest maturity (kg [dm]/ha)                1466          -99
      Pod/Ear/Panicle weight at maturity (kg [dm]/ha)       2194          -99
      Number at maturity (no/m2)                             474          -99
      Unit wt at maturity (g [dm]/unit)                   0.3095          -99
      Number at maturity (no/unit)                          3.50          -99
      Tops weight at maturity (kg [dm]/ha)                  2813          -99
      By-product produced (stalk) at maturity (kg[dm]/ha    1350          -99
      Leaf area index, maximum                              2.53          -99
      Harvest index at maturity                            0.521          -99
      Threshing % at maturity                              66.79          -99
      Grain N at maturity (kg/ha)                             55          -99
      Tops N at maturity (kg/ha)                              78          -99
      Stem N at maturity (kg/ha)                               7          -99
      Grain N at maturity (%)                               3.72          -99
      Tops weight at anthesis (kg [dm]/ha)                   594          -99
      Tops N at anthesis (kg/ha)                              18          -99
      Leaf number per stem at maturity                     10.11          -99
      Grain oil at maturity (%)                             2.92          -99
      Canopy height (m)                                     0.83          -99
      Harvest maturity day (dap)                              57          -99
      Emergence day (dap)                                      5          -99


*ENVIRONMENTAL AND STRESS FACTORS

 |-----Development Phase------|--------------------------------------Environment--------------------------------------|-----------------Stress-----------------|
                              |---------------Average--------------|-----Cumulative-----|--------Count of days--------|          (0=Min, 1=Max Stress)         |
                         Time  Temp  Temp  Temp Solar Photop                Evapo    Pot TMIN TMIN TMAX TMAX TMAX RAIN|----Water----|---Nitrogen--|-Phosphorus-|
                         Span   Max   Min  Mean   Rad  [day]    CO2   Rain  Trans     ET   <    <    >    >    >    >   Photo         Photo         Photo
                         days    øC    øC    øC MJ/m2     hr    ppm     mm     mm     mm  0øC  2øC 30øC 32øC 34øC  0mm  synth Growth  synth Growth  synth Growth
----------------------------------------------------------------------------------------------------------------------------------------------------------------
 Emergence -First Flower   21  30.4  19.4  24.9  19.3  12.13  346.8   57.6    0.0    0.0    0    0   12    4    0   12  0.000  0.000  0.000  0.146  0.000  0.000
 First Flower-First Seed   10  31.4  19.3  25.3  20.0  12.17  346.9   31.1    0.0    0.0    0    0   10    1    0    6  0.000  0.000  0.000  0.000  0.000  0.000
 First Seed - Phys. Mat.   12  29.9  19.0  24.4  18.6  12.19  346.9   74.5    0.0    0.0    0    0    8    0    0    6  0.000  0.000  0.000  0.000  0.000  0.000
 Emergence  - Phys. Mat.   43  30.5  19.3  24.9  19.3  12.15  346.9  163.2    0.0    0.0    0    0   30    5    0   24  0.000  0.000  0.000  0.072  0.000  0.000


 Planting to Harvest       71  29.7  19.2  24.5  18.7  12.13  346.8  309.9    0.0    0.0    0    0   35    5    0   39  0.000  0.000  0.000  0.043  0.000  0.000
----------------------------------------------------------------------------------------------------------------------------------------------------------------

--------------------------------------------------------------------------------------------------------------

                  Dry bean YIELD :     1466 kg/ha    [Dry weight] 

**************************************************************************************************************

*DSSAT Cropping System Model Ver. 4.6.1.000 -release      JUL 11, 2017; 16:24:46
                                                                                
*RUN   8        : SIM                       CRGRO046 3\000003    1              
 MODEL          : CRGRO046 - Dry bean                                           
 EXPERIMENT     : 3\000003 BN PALMIRA_ANALISIS SENSIBILIDAD                     
 DATA PATH      : D:\B\0\00000                                                  
 TREATMENT  1   : SIM                       CRGRO046                            
                                                                                
                                                                                
 CROP           : Dry bean         CULTIVAR : Jatu Rong        ECOTYPE :ANDIND  
 STARTING DATE  : APR  2 1987                                                   
 PLANTING DATE  : APR 16 1987        PLANTS/m2 : 26.6     ROW SPACING :  60.cm  
 WEATHER        : PALM8034                                                      
 SOIL           : CCPA000030     TEXTURE : C     -   Silty Clay Loam            
 WATER BALANCE  : NOT SIMULATED ; NO H2O-STRESS                                 
 IRRIGATION     :                                                               
 NITROGEN BAL.  : NOT SIMULATED ; NO N-STRESS                                   
 N-FERTILIZER   :                                                               
 RESIDUE/MANURE :                                                               
 ENVIRONM. OPT. : DAYL=    0.00  SRAD=    0.00  TMAX=    0.00  TMIN=    0.00    
                  RAIN=    0.00  CO2 =    0.00  DEW =    0.00  WIND=    0.00    
 SIMULATION OPT : WATER   :N  NITROGEN:N  N-FIX:N  PHOSPH :N  PESTS  :N         
                  PHOTO   :L  ET      :R  INFIL:S  HYDROL :R  SOM    :G         
                  CO2 348ppm  NSWIT   :1  EVAP :S  SOIL   :2  STEMP  :D         
 MANAGEMENT OPT : PLANTING:A  IRRIG   :A  FERT :D  RESIDUE:N  HARVEST:M         
                  WEATHER :M  TILLAGE :N                                        
                                                                                
*SUMMARY OF SOIL AND GENETIC INPUT PARAMETERS                                   
                                                                                
 Dry bean   CULTIVAR :000003-Jatu Rong          ECOTYPE :ANDIND                 
 CSDVAR :12.17  PPSEN  : 0.05  EMG-FLW:20.00  FLW-FSD: 9.00  FSD-PHM : 11.00    
 WTPSD  :0.600  SDPDVR : 3.50  SDFDUR :15.00  PODDUR :10.00  XFRUIT  :  1.00    
 THRESH : 78.0  SDPRO  :0.235  SDLIP   : 0.030                                  


*SIMULATED CROP AND SOIL STATUS AT MAIN DEVELOPMENT STAGES

 RUN NO.     8     SIM                     

        CROP GROWTH     BIOMASS         LEAF   CROP N     STRESS      STRESS                                           
   DATE  AGE STAGE        kg/ha    LAI   NUM  kg/ha  %   H2O  Nitr Phos1 Phos2  RSTG                                   
 ------  --- ----------   -----  -----  ----  ---  ---  ----  ----  ----  ----  ----                                   
  2 APR    0 Start Sim        0   0.00   0.0    0  0.0  0.00  0.00  0.00  0.00     0
 16 APR    0 Sowing           0   0.00   0.0    0  0.0  0.00  0.00  0.00  0.00     0
 21 APR    5 Emergence       44   0.08   0.2    1  3.4  0.00  0.00  0.00  0.00     0
 21 APR    5 End Juven.      44   0.08   0.2    1  3.4  0.00  0.00  0.00  0.00     0
 24 APR    8 Unifoliate      49   0.09   1.1    2  3.3  0.00  0.65  0.00  0.00     0
 26 APR   10 Flower Ind      56   0.10   1.7    2  3.2  0.00  0.43  0.00  0.00     0
 12 MAY   26 First Flwr     624   1.60   6.5   19  3.1  0.00  0.01  0.00  0.00     1
 15 MAY   29 First Pod      872   2.07   7.4   27  3.1  0.00  0.00  0.00  0.00     3
 22 MAY   36 First Seed    1682   2.61   9.5   52  3.1  0.00  0.00  0.00  0.00     5
 24 MAY   38 End Msnode    1954   2.64  10.1   59  3.0  0.00  0.00  0.00  0.00     5
 29 MAY   43 End Pod       2606   2.47  10.1   77  3.0  0.00  0.00  0.00  0.00     5
  1 JUN   46 End Leaf      2958   2.26  10.1   86  2.9  0.00  0.00  0.00  0.00     5
  3 JUN   48 Phys. Mat     3186   2.11  10.1   91  2.9  0.00  0.00  0.00  0.00     7
 12 JUN   57 Harv. Mat     2897   0.14  10.1   82  2.8  0.00  0.00  0.00  0.00     8
 12 JUN   57 Harvest       2897   0.14  10.1   82  2.8  0.00  0.00  0.00  0.00     8


*MAIN GROWTH AND DEVELOPMENT VARIABLES

@     VARIABLE                                         SIMULATED     MEASURED
      --------                                         ---------     --------
      Anthesis day (dap)                                      26          -99
      First pod day (dap)                                     29          -99
      First seed day (dap)                                    36          -99
      Physiological maturity day (dap)                        48          -99
      Yield at harvest maturity (kg [dm]/ha)                1551          -99
      Pod/Ear/Panicle weight at maturity (kg [dm]/ha)       2266          -99
      Number at maturity (no/m2)                             481          -99
      Unit wt at maturity (g [dm]/unit)                   0.3224          -99
      Number at maturity (no/unit)                          3.50          -99
      Tops weight at maturity (kg [dm]/ha)                  2897          -99
      By-product produced (stalk) at maturity (kg[dm]/ha    1350          -99
      Leaf area index, maximum                              2.64          -99
      Harvest index at maturity                            0.536          -99
      Threshing % at maturity                              68.47          -99
      Grain N at maturity (kg/ha)                             59          -99
      Tops N at maturity (kg/ha)                              82          -99
      Stem N at maturity (kg/ha)                               7          -99
      Grain N at maturity (%)                               3.79          -99
      Tops weight at anthesis (kg [dm]/ha)                   624          -99
      Tops N at anthesis (kg/ha)                              19          -99
      Leaf number per stem at maturity                     10.11          -99
      Grain oil at maturity (%)                             2.90          -99
      Canopy height (m)                                     0.83          -99
      Harvest maturity day (dap)                              57          -99
      Emergence day (dap)                                      5          -99


*ENVIRONMENTAL AND STRESS FACTORS

 |-----Development Phase------|--------------------------------------Environment--------------------------------------|-----------------Stress-----------------|
                              |---------------Average--------------|-----Cumulative-----|--------Count of days--------|          (0=Min, 1=Max Stress)         |
                         Time  Temp  Temp  Temp Solar Photop                Evapo    Pot TMIN TMIN TMAX TMAX TMAX RAIN|----Water----|---Nitrogen--|-Phosphorus-|
                         Span   Max   Min  Mean   Rad  [day]    CO2   Rain  Trans     ET   <    <    >    >    >    >   Photo         Photo         Photo
                         days    øC    øC    øC MJ/m2     hr    ppm     mm     mm     mm  0øC  2øC 30øC 32øC 34øC  0mm  synth Growth  synth Growth  synth Growth
----------------------------------------------------------------------------------------------------------------------------------------------------------------
 Emergence -First Flower   21  31.3  18.9  25.1  20.6  12.13  348.5  126.1    0.0    0.0    0    0   17    5    1   13  0.000  0.000  0.000  0.141  0.000  0.000
 First Flower-First Seed   10  31.0  19.2  25.1  19.6  12.17  348.6   69.6    0.0    0.0    0    0    8    3    0    7  0.000  0.000  0.000  0.000  0.000  0.000
 First Seed - Phys. Mat.   12  31.4  19.6  25.5  19.4  12.19  348.6   36.2    0.0    0.0    0    0    9    5    0    3  0.000  0.000  0.000  0.000  0.000  0.000
 Emergence  - Phys. Mat.   43  31.2  19.2  25.2  20.0  12.15  348.5  231.9    0.0    0.0    0    0   34   13    1   23  0.000  0.000  0.000  0.069  0.000  0.000


 Planting to Harvest       71  31.2  19.3  25.2  19.9  12.13  348.5  238.7    0.0    0.0    0    0   55   20    1   28  0.000  0.000  0.000  0.042  0.000  0.000
----------------------------------------------------------------------------------------------------------------------------------------------------------------

--------------------------------------------------------------------------------------------------------------

                  Dry bean YIELD :     1551 kg/ha    [Dry weight] 

**************************************************************************************************************

*DSSAT Cropping System Model Ver. 4.6.1.000 -release      JUL 11, 2017; 16:24:46
                                                                                
*RUN   9        : SIM                       CRGRO046 3\000003    1              
 MODEL          : CRGRO046 - Dry bean                                           
 EXPERIMENT     : 3\000003 BN PALMIRA_ANALISIS SENSIBILIDAD                     
 DATA PATH      : D:\B\0\00000                                                  
 TREATMENT  1   : SIM                       CRGRO046                            
                                                                                
                                                                                
 CROP           : Dry bean         CULTIVAR : Jatu Rong        ECOTYPE :ANDIND  
 STARTING DATE  : APR  1 1988                                                   
 PLANTING DATE  : APR 15 1988        PLANTS/m2 : 26.6     ROW SPACING :  60.cm  
 WEATHER        : PALM8034                                                      
 SOIL           : CCPA000030     TEXTURE : C     -   Silty Clay Loam            
 WATER BALANCE  : NOT SIMULATED ; NO H2O-STRESS                                 
 IRRIGATION     :                                                               
 NITROGEN BAL.  : NOT SIMULATED ; NO N-STRESS                                   
 N-FERTILIZER   :                                                               
 RESIDUE/MANURE :                                                               
 ENVIRONM. OPT. : DAYL=    0.00  SRAD=    0.00  TMAX=    0.00  TMIN=    0.00    
                  RAIN=    0.00  CO2 =    0.00  DEW =    0.00  WIND=    0.00    
 SIMULATION OPT : WATER   :N  NITROGEN:N  N-FIX:N  PHOSPH :N  PESTS  :N         
                  PHOTO   :L  ET      :R  INFIL:S  HYDROL :R  SOM    :G         
                  CO2 351ppm  NSWIT   :1  EVAP :S  SOIL   :2  STEMP  :D         
 MANAGEMENT OPT : PLANTING:A  IRRIG   :A  FERT :D  RESIDUE:N  HARVEST:M         
                  WEATHER :M  TILLAGE :N                                        
                                                                                
*SUMMARY OF SOIL AND GENETIC INPUT PARAMETERS                                   
                                                                                
 Dry bean   CULTIVAR :000003-Jatu Rong          ECOTYPE :ANDIND                 
 CSDVAR :12.17  PPSEN  : 0.05  EMG-FLW:20.00  FLW-FSD: 9.00  FSD-PHM : 11.00    
 WTPSD  :0.600  SDPDVR : 3.50  SDFDUR :15.00  PODDUR :10.00  XFRUIT  :  1.00    
 THRESH : 78.0  SDPRO  :0.235  SDLIP   : 0.030                                  


*SIMULATED CROP AND SOIL STATUS AT MAIN DEVELOPMENT STAGES

 RUN NO.     9     SIM                     

        CROP GROWTH     BIOMASS         LEAF   CROP N     STRESS      STRESS                                           
   DATE  AGE STAGE        kg/ha    LAI   NUM  kg/ha  %   H2O  Nitr Phos1 Phos2  RSTG                                   
 ------  --- ----------   -----  -----  ----  ---  ---  ----  ----  ----  ----  ----                                   
  1 APR    0 Start Sim        0   0.00   0.0    0  0.0  0.00  0.00  0.00  0.00     0
 15 APR    0 Sowing           0   0.00   0.0    0  0.0  0.00  0.00  0.00  0.00     0
 20 APR    5 Emergence       44   0.08   0.2    1  3.4  0.00  0.00  0.00  0.00     0
 20 APR    5 End Juven.      44   0.08   0.2    1  3.4  0.00  0.00  0.00  0.00     0
 23 APR    8 Unifoliate      48   0.09   1.0    2  3.3  0.00  0.65  0.00  0.00     0
 25 APR   10 Flower Ind      56   0.10   1.6    2  3.2  0.00  0.41  0.00  0.00     0
 11 MAY   26 First Flwr     562   1.51   6.4   17  3.0  0.00  0.02  0.00  0.00     1
 14 MAY   29 First Pod      783   1.97   7.3   24  3.1  0.00  0.00  0.00  0.00     3
 21 MAY   36 First Seed    1532   2.43   9.3   47  3.1  0.00  0.00  0.00  0.00     5
 23 MAY   38 End Msnode    1789   2.46   9.9   54  3.0  0.00  0.00  0.00  0.00     5
 28 MAY   43 End Pod       2378   2.29   9.9   71  3.0  0.00  0.00  0.00  0.00     5
 31 MAY   46 End Leaf      2723   2.11   9.9   80  2.9  0.00  0.00  0.00  0.00     5
  2 JUN   48 Phys. Mat     2950   1.97   9.9   85  2.9  0.00  0.00  0.00  0.00     7
 11 JUN   57 Harv. Mat     2744   0.13   9.9   78  2.8  0.00  0.00  0.00  0.00     8
 11 JUN   57 Harvest       2744   0.13   9.9   78  2.8  0.00  0.00  0.00  0.00     8


*MAIN GROWTH AND DEVELOPMENT VARIABLES

@     VARIABLE                                         SIMULATED     MEASURED
      --------                                         ---------     --------
      Anthesis day (dap)                                      26          -99
      First pod day (dap)                                     29          -99
      First seed day (dap)                                    36          -99
      Physiological maturity day (dap)                        48          -99
      Yield at harvest maturity (kg [dm]/ha)                1410          -99
      Pod/Ear/Panicle weight at maturity (kg [dm]/ha)       2182          -99
      Number at maturity (no/m2)                             481          -99
      Unit wt at maturity (g [dm]/unit)                   0.2930          -99
      Number at maturity (no/unit)                          3.50          -99
      Tops weight at maturity (kg [dm]/ha)                  2744          -99
      By-product produced (stalk) at maturity (kg[dm]/ha    1330          -99
      Leaf area index, maximum                              2.46          -99
      Harvest index at maturity                            0.514          -99
      Threshing % at maturity                              64.64          -99
      Grain N at maturity (kg/ha)                             54          -99
      Tops N at maturity (kg/ha)                              78          -99
      Stem N at maturity (kg/ha)                               6          -99
      Grain N at maturity (%)                               3.85          -99
      Tops weight at anthesis (kg [dm]/ha)                   562          -99
      Tops N at anthesis (kg/ha)                              17          -99
      Leaf number per stem at maturity                      9.92          -99
      Grain oil at maturity (%)                             2.77          -99
      Canopy height (m)                                     0.80          -99
      Harvest maturity day (dap)                              57          -99
      Emergence day (dap)                                      5          -99


*ENVIRONMENTAL AND STRESS FACTORS

 |-----Development Phase------|--------------------------------------Environment--------------------------------------|-----------------Stress-----------------|
                              |---------------Average--------------|-----Cumulative-----|--------Count of days--------|          (0=Min, 1=Max Stress)         |
                         Time  Temp  Temp  Temp Solar Photop                Evapo    Pot TMIN TMIN TMAX TMAX TMAX RAIN|----Water----|---Nitrogen--|-Phosphorus-|
                         Span   Max   Min  Mean   Rad  [day]    CO2   Rain  Trans     ET   <    <    >    >    >    >   Photo         Photo         Photo
                         days    øC    øC    øC MJ/m2     hr    ppm     mm     mm     mm  0øC  2øC 30øC 32øC 34øC  0mm  synth Growth  synth Growth  synth Growth
----------------------------------------------------------------------------------------------------------------------------------------------------------------
 Emergence -First Flower   21  29.3  19.4  24.3  18.4  12.13  351.0   68.8    0.0    0.0    0    0    5    0    0    8  0.000  0.000  0.000  0.146  0.000  0.000
 First Flower-First Seed   10  29.1  19.3  24.2  17.9  12.17  351.2   16.5    0.0    0.0    0    0    3    0    0    4  0.000  0.000  0.000  0.000  0.000  0.000
 First Seed - Phys. Mat.   12  29.6  18.9  24.2  18.3  12.19  351.2   93.8    0.0    0.0    0    0    4    2    1    7  0.000  0.000  0.000  0.000  0.000  0.000
 Emergence  - Phys. Mat.   43  29.3  19.2  24.3  18.2  12.15  351.1  179.1    0.0    0.0    0    0   12    2    1   19  0.000  0.000  0.000  0.071  0.000  0.000


 Planting to Harvest       71  29.4  19.3  24.3  18.4  12.13  351.1  343.9    0.0    0.0    0    0   27    6    1   33  0.000  0.000  0.000  0.043  0.000  0.000
----------------------------------------------------------------------------------------------------------------------------------------------------------------

--------------------------------------------------------------------------------------------------------------

                  Dry bean YIELD :     1410 kg/ha    [Dry weight] 

**************************************************************************************************************

*DSSAT Cropping System Model Ver. 4.6.1.000 -release      JUL 11, 2017; 16:24:46
                                                                                
*RUN  10        : SIM                       CRGRO046 3\000003    1              
 MODEL          : CRGRO046 - Dry bean                                           
 EXPERIMENT     : 3\000003 BN PALMIRA_ANALISIS SENSIBILIDAD                     
 DATA PATH      : D:\B\0\00000                                                  
 TREATMENT  1   : SIM                       CRGRO046                            
[...]
      Emergence day (dap)                                      5          -99


*ENVIRONMENTAL AND STRESS FACTORS

 |-----Development Phase------|--------------------------------------Environment--------------------------------------|-----------------Stress-----------------|
                              |---------------Average--------------|-----Cumulative-----|--------Count of days--------|          (0=Min, 1=Max Stress)         |
                         Time  Temp  Temp  Temp Solar Photop                Evapo    Pot TMIN TMIN TMAX TMAX TMAX RAIN|----Water----|---Nitrogen--|-Phosphorus-|
                         Span   Max   Min  Mean   Rad  [day]    CO2   Rain  Trans     ET   <    <    >    >    >    >   Photo         Photo         Photo
                         days    øC    øC    øC MJ/m2     hr    ppm     mm     mm     mm  0øC  2øC 30øC 32øC 34øC  0mm  synth Growth  synth Growth  synth Growth
----------------------------------------------------------------------------------------------------------------------------------------------------------------
 Emergence -First Flower   21  30.5  19.1  24.8  19.7  12.13  386.9   48.9    0.0    0.0    0    0   16    2    0   13  0.000  0.000  0.000  0.134  0.000  0.000
 First Flower-First Seed   10  30.4  18.7  24.5  19.6  12.17  387.1    3.8    0.0    0.0    0    0    7    0    0    2  0.000  0.000  0.000  0.000  0.000  0.000
 First Seed - Phys. Mat.   12  31.1  19.0  25.1  19.6  12.19  387.1    0.2    0.0    0.0    0    0    9    3    0    1  0.000  0.000  0.000  0.000  0.000  0.000
 Emergence  - Phys. Mat.   43  30.6  19.0  24.8  19.6  12.15  387.0   52.9    0.0    0.0    0    0   32    5    0   16  0.000  0.000  0.000  0.065  0.000  0.000


 Planting to Harvest       71  30.2  19.2  24.7  19.2  12.13  387.0  105.4    0.0    0.0    0    0   44    5    0   31  0.000  0.000  0.000  0.040  0.000  0.000
----------------------------------------------------------------------------------------------------------------------------------------------------------------

--------------------------------------------------------------------------------------------------------------

                  Dry bean YIELD :     1523 kg/ha    [Dry weight] 

**************************************************************************************************************

*DSSAT Cropping System Model Ver. 4.6.1.000 -release      JUL 11, 2017; 16:24:46
                                                                                
*RUN  31        : SIM                       CRGRO046 3\000003    1              
 MODEL          : CRGRO046 - Dry bean                                           
 EXPERIMENT     : 3\000003 BN PALMIRA_ANALISIS SENSIBILIDAD                     
 DATA PATH      : D:\B\0\00000                                                  
 TREATMENT  1   : SIM                       CRGRO046                            
                                                                                
                                                                                
 CROP           : Dry bean         CULTIVAR : Jatu Rong        ECOTYPE :ANDIND  
 STARTING DATE  : APR  2 2010                                                   
 PLANTING DATE  : APR 16 2010        PLANTS/m2 : 26.6     ROW SPACING :  60.cm  
 WEATHER        : PALM8034                                                      
 SOIL           : CCPA000030     TEXTURE : C     -   Silty Clay Loam            
 WATER BALANCE  : NOT SIMULATED ; NO H2O-STRESS                                 
 IRRIGATION     :                                                               
 NITROGEN BAL.  : NOT SIMULATED ; NO N-STRESS                                   
 N-FERTILIZER   :                                                               
 RESIDUE/MANURE :                                                               
 ENVIRONM. OPT. : DAYL=    0.00  SRAD=    0.00  TMAX=    0.00  TMIN=    0.00    
                  RAIN=    0.00  CO2 =    0.00  DEW =    0.00  WIND=    0.00    
 SIMULATION OPT : WATER   :N  NITROGEN:N  N-FIX:N  PHOSPH :N  PESTS  :N         
                  PHOTO   :L  ET      :R  INFIL:S  HYDROL :R  SOM    :G         
                  CO2 389ppm  NSWIT   :1  EVAP :S  SOIL   :2  STEMP  :D         
 MANAGEMENT OPT : PLANTING:A  IRRIG   :A  FERT :D  RESIDUE:N  HARVEST:M         
                  WEATHER :M  TILLAGE :N                                        
                                                                                
*SUMMARY OF SOIL AND GENETIC INPUT PARAMETERS                                   
                                                                                
 Dry bean   CULTIVAR :000003-Jatu Rong          ECOTYPE :ANDIND                 
 CSDVAR :12.17  PPSEN  : 0.05  EMG-FLW:20.00  FLW-FSD: 9.00  FSD-PHM : 11.00    
 WTPSD  :0.600  SDPDVR : 3.50  SDFDUR :15.00  PODDUR :10.00  XFRUIT  :  1.00    
 THRESH : 78.0  SDPRO  :0.235  SDLIP   : 0.030                                  


*SIMULATED CROP AND SOIL STATUS AT MAIN DEVELOPMENT STAGES

 RUN NO.    31     SIM                     

        CROP GROWTH     BIOMASS         LEAF   CROP N     STRESS      STRESS                                           
   DATE  AGE STAGE        kg/ha    LAI   NUM  kg/ha  %   H2O  Nitr Phos1 Phos2  RSTG                                   
 ------  --- ----------   -----  -----  ----  ---  ---  ----  ----  ----  ----  ----                                   
  2 APR    0 Start Sim        0   0.00   0.0    0  0.0  0.00  0.00  0.00  0.00     0
 16 APR    0 Sowing           0   0.00   0.0    0  0.0  0.00  0.00  0.00  0.00     0
 21 APR    5 Emergence       44   0.08   0.2    1  3.4  0.00  0.00  0.00  0.00     0
 21 APR    5 End Juven.      44   0.08   0.2    1  3.4  0.00  0.00  0.00  0.00     0
 24 APR    8 Unifoliate      49   0.09   1.1    2  3.3  0.00  0.66  0.00  0.00     0
 26 APR   10 Flower Ind      55   0.10   1.7    2  3.1  0.00  0.45  0.00  0.00     0
 12 MAY   26 First Flwr     623   1.69   6.6   19  3.1  0.00  0.01  0.00  0.00     1
 14 MAY   28 First Pod      795   2.01   7.2   25  3.1  0.00  0.00  0.00  0.00     3
 21 MAY   35 First Seed    1565   2.64   9.4   48  3.1  0.00  0.00  0.00  0.00     5
 23 MAY   37 End Msnode    1819   2.68   9.9   55  3.0  0.00  0.00  0.00  0.00     5
 28 MAY   42 End Pod       2460   2.51   9.9   73  3.0  0.00  0.00  0.00  0.00     5
 31 MAY   45 End Leaf      2827   2.31   9.9   82  2.9  0.00  0.00  0.00  0.00     5
  2 JUN   47 Phys. Mat     3054   2.16   9.9   87  2.9  0.00  0.00  0.00  0.00     7
 11 JUN   56 Harv. Mat     2815   0.15   9.9   79  2.8  0.00  0.00  0.00  0.00     8
 11 JUN   56 Harvest       2815   0.15   9.9   79  2.8  0.00  0.00  0.00  0.00     8


*MAIN GROWTH AND DEVELOPMENT VARIABLES

@     VARIABLE                                         SIMULATED     MEASURED
      --------                                         ---------     --------
      Anthesis day (dap)                                      26          -99
      First pod day (dap)                                     28          -99
      First seed day (dap)                                    35          -99
      Physiological maturity day (dap)                        47          -99
      Yield at harvest maturity (kg [dm]/ha)                1476          -99
      Pod/Ear/Panicle weight at maturity (kg [dm]/ha)       2221          -99
      Number at maturity (no/m2)                             481          -99
      Unit wt at maturity (g [dm]/unit)                   0.3070          -99
      Number at maturity (no/unit)                          3.50          -99
      Tops weight at maturity (kg [dm]/ha)                  2815          -99
      By-product produced (stalk) at maturity (kg[dm]/ha    1340          -99
      Leaf area index, maximum                              2.68          -99
      Harvest index at maturity                            0.524          -99
      Threshing % at maturity                              66.45          -99
      Grain N at maturity (kg/ha)                             56          -99
      Tops N at maturity (kg/ha)                              79          -99
      Stem N at maturity (kg/ha)                               7          -99
      Grain N at maturity (%)                               3.77          -99
      Tops weight at anthesis (kg [dm]/ha)                   623          -99
      Tops N at anthesis (kg/ha)                              19          -99
      Leaf number per stem at maturity                      9.95          -99
      Grain oil at maturity (%)                             2.88          -99
      Canopy height (m)                                     0.82          -99
      Harvest maturity day (dap)                              56          -99
      Emergence day (dap)                                      5          -99


*ENVIRONMENTAL AND STRESS FACTORS

 |-----Development Phase------|--------------------------------------Environment--------------------------------------|-----------------Stress-----------------|
                              |---------------Average--------------|-----Cumulative-----|--------Count of days--------|          (0=Min, 1=Max Stress)         |
                         Time  Temp  Temp  Temp Solar Photop                Evapo    Pot TMIN TMIN TMAX TMAX TMAX RAIN|----Water----|---Nitrogen--|-Phosphorus-|
                         Span   Max   Min  Mean   Rad  [day]    CO2   Rain  Trans     ET   <    <    >    >    >    >   Photo         Photo         Photo
                         days    øC    øC    øC MJ/m2     hr    ppm     mm     mm     mm  0øC  2øC 30øC 32øC 34øC  0mm  synth Growth  synth Growth  synth Growth
----------------------------------------------------------------------------------------------------------------------------------------------------------------
 Emergence -First Flower   21  29.5  20.2  24.8  17.7  12.13  389.4  122.8    0.0    0.0    0    0   10    0    0   10  0.000  0.000  0.000  0.142  0.000  0.000
 First Flower-First Seed    9  30.7  21.0  25.9  17.7  12.16  389.5   18.9    0.0    0.0    0    0    8    1    0    4  0.000  0.000  0.000  0.000  0.000  0.000
 First Seed - Phys. Mat.   12  28.4  19.8  24.1  16.4  12.18  389.6   72.6    0.0    0.0    0    0    4    0    0    7  0.000  0.000  0.000  0.000  0.000  0.000
 Emergence  - Phys. Mat.   42  29.4  20.3  24.8  17.4  12.15  389.5  214.3    0.0    0.0    0    0   22    1    0   21  0.000  0.000  0.000  0.071  0.000  0.000


 Planting to Harvest       70  29.4  20.0  24.7  17.7  12.13  389.4  363.2    0.0    0.0    0    0   36    3    0   38  0.000  0.000  0.000  0.043  0.000  0.000
----------------------------------------------------------------------------------------------------------------------------------------------------------------

--------------------------------------------------------------------------------------------------------------

                  Dry bean YIELD :     1476 kg/ha    [Dry weight] 

**************************************************************************************************************

*DSSAT Cropping System Model Ver. 4.6.1.000 -release      JUL 11, 2017; 16:24:46
                                                                                
*RUN  32        : SIM                       CRGRO046 3\000003    1              
 MODEL          : CRGRO046 - Dry bean                                           
 EXPERIMENT     : 3\000003 BN PALMIRA_ANALISIS SENSIBILIDAD                     
 DATA PATH      : D:\B\0\00000                                                  
 TREATMENT  1   : SIM                       CRGRO046                            
                                                                                
                                                                                
 CROP           : Dry bean         CULTIVAR : Jatu Rong        ECOTYPE :ANDIND  
 STARTING DATE  : APR  2 2011                                                   
 PLANTING DATE  : APR 16 2011        PLANTS/m2 : 26.6     ROW SPACING :  60.cm  
 WEATHER        : PALM8034                                                      
 SOIL           : CCPA000030     TEXTURE : C     -   Silty Clay Loam            
 WATER BALANCE  : NOT SIMULATED ; NO H2O-STRESS                                 
 IRRIGATION     :                                                               
 NITROGEN BAL.  : NOT SIMULATED ; NO N-STRESS                                   
 N-FERTILIZER   :                                                               
 RESIDUE/MANURE :                                                               
 ENVIRONM. OPT. : DAYL=    0.00  SRAD=    0.00  TMAX=    0.00  TMIN=    0.00    
                  RAIN=    0.00  CO2 =    0.00  DEW =    0.00  WIND=    0.00    
 SIMULATION OPT : WATER   :N  NITROGEN:N  N-FIX:N  PHOSPH :N  PESTS  :N         
                  PHOTO   :L  ET      :R  INFIL:S  HYDROL :R  SOM    :G         
                  CO2 391ppm  NSWIT   :1  EVAP :S  SOIL   :2  STEMP  :D         
 MANAGEMENT OPT : PLANTING:A  IRRIG   :A  FERT :D  RESIDUE:N  HARVEST:M         
                  WEATHER :M  TILLAGE :N                                        
                                                                                
*SUMMARY OF SOIL AND GENETIC INPUT PARAMETERS                                   
                                                                                
 Dry bean   CULTIVAR :000003-Jatu Rong          ECOTYPE :ANDIND                 
 CSDVAR :12.17  PPSEN  : 0.05  EMG-FLW:20.00  FLW-FSD: 9.00  FSD-PHM : 11.00    
 WTPSD  :0.600  SDPDVR : 3.50  SDFDUR :15.00  PODDUR :10.00  XFRUIT  :  1.00    
 THRESH : 78.0  SDPRO  :0.235  SDLIP   : 0.030                                  


*SIMULATED CROP AND SOIL STATUS AT MAIN DEVELOPMENT STAGES

 RUN NO.    32     SIM                     

        CROP GROWTH     BIOMASS         LEAF   CROP N     STRESS      STRESS                                           
   DATE  AGE STAGE        kg/ha    LAI   NUM  kg/ha  %   H2O  Nitr Phos1 Phos2  RSTG                                   
 ------  --- ----------   -----  -----  ----  ---  ---  ----  ----  ----  ----  ----                                   
  2 APR    0 Start Sim        0   0.00   0.0    0  0.0  0.00  0.00  0.00  0.00     0
 16 APR    0 Sowing           0   0.00   0.0    0  0.0  0.00  0.00  0.00  0.00     0
 21 APR    5 Emergence       44   0.08   0.2    1  3.4  0.00  0.00  0.00  0.00     0
 21 APR    5 End Juven.      44   0.08   0.2    1  3.4  0.00  0.00  0.00  0.00     0
 24 APR    8 Unifoliate      49   0.09   1.1    2  3.3  0.00  0.64  0.00  0.00     0
 26 APR   10 Flower Ind      57   0.10   1.7    2  3.1  0.00  0.39  0.00  0.00     0
 12 MAY   26 First Flwr     631   1.68   6.5   19  3.1  0.00  0.01  0.00  0.00     1
 15 MAY   29 First Pod      884   2.17   7.4   28  3.1  0.00  0.00  0.00  0.00     3
 22 MAY   36 First Seed    1741   2.68   9.4   53  3.1  0.00  0.00  0.00  0.00     5
 24 MAY   38 End Msnode    2035   2.71  10.0   62  3.0  0.00  0.00  0.00  0.00     5
 29 MAY   43 End Pod       2719   2.53  10.0   80  3.0  0.00  0.00  0.00  0.00     5
  1 JUN   46 End Leaf      3095   2.31  10.0   90  2.9  0.00  0.00  0.00  0.00     5
  3 JUN   48 Phys. Mat     3329   2.16  10.0   95  2.9  0.00  0.00  0.00  0.00     7
 12 JUN   57 Harv. Mat     3063   0.15  10.0   86  2.8  0.00  0.00  0.00  0.00     8
 12 JUN   57 Harvest       3063   0.15  10.0   86  2.8  0.00  0.00  0.00  0.00     8


*MAIN GROWTH AND DEVELOPMENT VARIABLES

@     VARIABLE                                         SIMULATED     MEASURED
      --------                                         ---------     --------
      Anthesis day (dap)                                      26          -99
      First pod day (dap)                                     29          -99
      First seed day (dap)                                    36          -99
      Physiological maturity day (dap)                        48          -99
      Yield at harvest maturity (kg [dm]/ha)                1630          -99
      Pod/Ear/Panicle weight at maturity (kg [dm]/ha)       2402          -99
      Number at maturity (no/m2)                             517          -99
      Unit wt at maturity (g [dm]/unit)                   0.3155          -99
      Number at maturity (no/unit)                          3.50          -99
      Tops weight at maturity (kg [dm]/ha)                  3063          -99
      By-product produced (stalk) at maturity (kg[dm]/ha    1430          -99
      Leaf area index, maximum                              2.71          -99
      Harvest index at maturity                            0.532          -99
      Threshing % at maturity                              67.85          -99
      Grain N at maturity (kg/ha)                             62          -99
      Tops N at maturity (kg/ha)                              86          -99
      Stem N at maturity (kg/ha)                               7          -99
      Grain N at maturity (%)                               3.80          -99
      Tops weight at anthesis (kg [dm]/ha)                   631          -99
      Tops N at anthesis (kg/ha)                              19          -99
      Leaf number per stem at maturity                     10.04          -99
      Grain oil at maturity (%)                             2.85          -99
      Canopy height (m)                                     0.82          -99
      Harvest maturity day (dap)                              57          -99
      Emergence day (dap)                                      5          -99


*ENVIRONMENTAL AND STRESS FACTORS

 |-----Development Phase------|--------------------------------------Environment--------------------------------------|-----------------Stress-----------------|
                              |---------------Average--------------|-----Cumulative-----|--------Count of days--------|          (0=Min, 1=Max Stress)         |
                         Time  Temp  Temp  Temp Solar Photop                Evapo    Pot TMIN TMIN TMAX TMAX TMAX RAIN|----Water----|---Nitrogen--|-Phosphorus-|
                         Span   Max   Min  Mean   Rad  [day]    CO2   Rain  Trans     ET   <    <    >    >    >    >   Photo         Photo         Photo
                         days    øC    øC    øC MJ/m2     hr    ppm     mm     mm     mm  0øC  2øC 30øC 32øC 34øC  0mm  synth Growth  synth Growth  synth Growth
----------------------------------------------------------------------------------------------------------------------------------------------------------------
 Emergence -First Flower   21  30.3  19.6  25.0  19.1  12.13  391.2   69.5    0.0    0.0    0    0   12    1    0   12  0.000  0.000  0.000  0.136  0.000  0.000
 First Flower-First Seed   10  29.2  18.8  24.0  18.5  12.17  391.3   17.0    0.0    0.0    0    0    3    0    0    5  0.000  0.000  0.000  0.000  0.000  0.000
 First Seed - Phys. Mat.   12  29.7  19.5  24.6  18.0  12.19  391.4   21.8    0.0    0.0    0    0    7    0    0    5  0.000  0.000  0.000  0.000  0.000  0.000
 Emergence  - Phys. Mat.   43  29.9  19.4  24.6  18.6  12.15  391.3  108.3    0.0    0.0    0    0   22    1    0   22  0.000  0.000  0.000  0.066  0.000  0.000


 Planting to Harvest       71  29.7  19.3  24.5  18.6  12.13  391.3  270.5    0.0    0.0    0    0   34    4    0   40  0.000  0.000  0.000  0.040  0.000  0.000
----------------------------------------------------------------------------------------------------------------------------------------------------------------

--------------------------------------------------------------------------------------------------------------

                  Dry bean YIELD :     1630 kg/ha    [Dry weight] 

**************************************************************************************************************
