*GROWTH ASPECTS OUTPUT FILE

*DSSAT Cropping System Model Ver. 4.6.1.000 -release      JUL 11, 2017; 16:24:46
                                                                                
*RUN   1        : SIM                       CRGRO046 3\000003    1              
 MODEL          : CRGRO046 - Dry bean                                           
 EXPERIMENT     : 3\000003 BN PALMIRA_ANALISIS SENSIBILIDAD                     
 DATA PATH      : D:\B\0\00000                                                  
 TREATMENT  1   : SIM                       CRGRO046                            
  
!                                                                                                                                                                                                                                                    Root Dens. (cm/cm3) by soil depth (cm):
!                                                                                                                                                                                                                                                    0-5    5-15   15-25   25-35   35-50   50-65   65-80   80-99  99-122 122-209
@YEAR DOY   DAS   DAP   L#SD   GSTD   LAID   LWAD   SWAD   GWAD   RWAD   VWAD   CWAD   G#AD    GWGD   HIAD   PWAD   P#AD   WSPD   WSGD   NSTD  PST1A  PST2A   KSTD   EWSD    LN%D   SH%D   HIPD   PWDD   PWTD   SLAD   CHTD   CWID   NWAD   RDPD    RL1D    RL2D    RL3D    RL4D    RL5D    RL6D    RL7D    RL8D    RL9D   RL10D    SNW0C   SNW1C
 1980 106    15     0    0.0      0  0.000      0      0      0      0      0      0      0     0.0  0.000      0      0  0.000  0.000  0.000  0.000  0.000  0.000  0.000    0.00   0.00   0.00      0      0    0.0   0.00   0.00    0.0   0.00    0.00    0.00    0.00    0.00    0.00    0.00    0.00    0.00    0.00    0.00        0       0
 1980 107    16     1    0.0      0  0.000      0      0      0      0      0      0      0     0.0  0.000      0      0  0.000  0.000  0.000  0.000  0.000  0.000  0.000    0.00   0.00   0.00      0      0    0.0   0.00   0.00    0.0   0.00    0.00    0.00    0.00    0.00    0.00    0.00    0.00    0.00    0.00    0.00        0       0
 1980 108    17     2    0.0      0  0.000      0      0      0      0      0      0      0     0.0  0.000      0      0  0.000  0.000  0.000  0.000  0.000  0.000  0.000    0.00   0.00   0.00      0      0    0.0   0.00   0.00    0.0   0.00    0.00    0.00    0.00    0.00    0.00    0.00    0.00    0.00    0.00    0.00        0       0
 1980 109    18     3    0.0      0  0.000      0      0      0      0      0      0      0     0.0  0.000      0      0  0.000  0.000  0.000  0.000  0.000  0.000  0.000    0.00   0.00   0.00      0      0    0.0   0.00   0.00    0.0   0.00    0.00    0.00    0.00    0.00    0.00    0.00    0.00    0.00    0.00    0.00        0       0
 1980 110    19     4    0.0      0  0.000      0      0      0      0      0      0      0     0.0  0.000      0      0  0.000  0.000  0.000  0.000  0.000  0.000  0.000    0.00   0.00   0.00      0      0    0.0   0.00   0.00    0.0   0.00    0.00    0.00    0.00    0.00    0.00    0.00    0.00    0.00    0.00    0.00        0       0
 1980 111    20     5    0.2      0  0.079     31     13      0     43     44     44      0     0.0  0.000      0      0  0.000  0.000  0.000  0.000  0.000  0.000  0.000    3.84   0.00   0.00      0      0  256.8   0.04   0.03    0.0   0.27    0.15    0.15    0.15    0.00    0.00    0.00    0.00    0.00    0.00    0.00        0       1
 1980 112    21     6    0.5      0  0.082     31     14      0     50     45     45      0     0.0  0.000      0      0  0.000  0.000  0.646  0.000  0.000  0.000  0.000    3.78   0.00   0.00      0      0  261.8   0.05   0.03    0.0   0.29    0.18    0.18    0.17    0.01    0.00    0.00    0.00    0.00    0.00    0.00        0       2
 1980 113    22     7    0.8      0  0.085     32     15      0     59     47     47      0     0.0  0.000      0      0  0.000  0.000  0.737  0.000  0.000  0.000  0.000    3.72   0.00   0.00      0      0  265.6   0.07   0.04    0.0   0.32    0.21    0.21    0.20    0.02    0.00    0.00    0.00    0.00    0.00    0.00        0       3
 1980 114    23     8    1.1      0  0.088     33     16      0     67     49     49      0     0.0  0.000      0      0  0.000  0.000  0.546  0.000  0.000  0.000  0.000    3.71   0.00   0.00      0      0  271.5   0.08   0.05    0.0   0.34    0.24    0.24    0.21    0.03    0.00    0.00    0.00    0.00    0.00    0.00        0       4
 1980 115    24     9    1.4      0  0.092     33     18      0     74     51     51      0     0.0  0.000      0      0  0.000  0.000  0.519  0.000  0.000  0.000  0.000    3.68   0.00   0.00      0      0  278.2   0.09   0.05    0.0   0.36    0.26    0.26    0.23    0.05    0.00    0.00    0.00    0.00    0.00    0.00        1       6
 1980 116    25    10    1.7      0  0.098     34     22      0     79     56     56      0     0.0  0.000      0      0  0.000  0.000  0.303  0.000  0.000  0.000  0.000    3.66   0.00   0.00      0      0  285.5   0.10   0.06    0.0   0.38    0.28    0.28    0.24    0.06    0.00    0.00    0.00    0.00    0.00    0.00        1       7
 1980 117    26    11    2.0      0  0.114     37     25      0     82     62     62      0     0.0  0.000      0      0  0.000  0.000  0.204  0.000  0.000  0.000  0.000    3.63   0.00   0.00      0      0  308.2   0.11   0.07    0.0   0.40    0.28    0.28    0.25    0.06    0.00    0.00    0.00    0.00    0.00    0.00        2       9
 1980 118    27    12    2.3      0  0.141     44     28      0     82     72     72      0     0.0  0.000      0      0  0.000  0.000  0.000  0.000  0.000  0.000  0.000    3.61   0.00   0.00      0      0  323.5   0.11   0.08    0.0   0.42    0.29    0.29    0.25    0.06    0.00    0.00    0.00    0.00    0.00    0.00        2      11
 1980 119    28    13    2.6      0  0.168     49     34      0     84     83     83      0     0.0  0.000      0      0  0.000  0.000  0.000  0.000  0.000  0.000  0.000    3.56   0.00   0.00      0      0  339.2   0.12   0.08    0.0   0.44    0.29    0.29    0.25    0.07    0.01    0.00    0.00    0.00    0.00    0.00        3      12
 1980 120    29    14    2.9      0  0.206     57     39      0     85     96     96      0     0.0  0.000      0      0  0.000  0.000  0.000  0.000  0.000  0.000  0.000    3.53   0.00   0.00      0      0  358.4   0.13   0.09    0.0   0.46    0.29    0.29    0.25    0.07    0.01    0.00    0.00    0.00    0.00    0.00        3      14
 1980 121    30    15    3.2      0  0.258     70     42      0     85    113    113      0     0.0  0.000      0      0  0.000  0.000  0.000  0.000  0.000  0.000  0.000    3.53   0.00   0.00      0      0  367.5   0.14   0.10    0.0   0.49    0.29    0.29    0.25    0.07    0.01    0.00    0.00    0.00    0.00    0.00        4      16
 1980 122    31    16    3.5      0  0.313     81     49      0     86    131    131      0     0.0  0.000      0      0  0.000  0.000  0.000  0.000  0.000  0.000  0.000    3.52   0.00   0.00      0      0  385.3   0.15   0.12    0.0   0.51    0.29    0.29    0.25    0.07    0.01    0.00    0.00    0.00    0.00    0.00        5      18
 1980 123    32    17    3.8      0  0.365     93     59      0     88    152    152      0     0.0  0.000      0      0  0.000  0.000  0.000  0.000  0.000  0.000  0.000    3.52   0.00   0.00      0      0  390.6   0.16   0.14    0.0   0.53    0.30    0.30    0.25    0.08    0.02    0.00    0.00    0.00    0.00    0.00        5      19
 1980 124    33    18    4.1      0  0.417    105     72      0     90    177    177      0     0.0  0.000      0      0  0.000  0.000  0.000  0.000  0.000  0.000  0.000    3.51   0.00   0.00      0      0  395.5   0.17   0.16    0.0   0.54    0.30    0.30    0.26    0.08    0.02    0.00    0.00    0.00    0.00    0.00        6      21
 1980 125    34    19    4.4      0  0.493    122     83      0     92    206    206      0     0.0  0.000      0      0  0.000  0.000  0.000  0.000  0.000  0.000  0.000    3.52   0.00   0.00      0      0  402.4   0.19   0.18    0.0   0.56    0.31    0.31    0.26    0.09    0.02    0.00    0.00    0.00    0.00    0.00        8      23
 1980 126    35    20    4.7      0  0.604    148     92      0     93    240    240      0     0.0  0.000      0      0  0.000  0.000  0.000  0.000  0.000  0.000  0.000    3.54   0.00   0.00      0      0  407.6   0.20   0.20    0.0   0.58    0.31    0.31    0.26    0.09    0.03    0.00    0.00    0.00    0.00    0.00        9      25
 1980 127    36    21    5.0      0  0.739    178    102      0     94    280    280      0     0.0  0.000      0      0  0.000  0.000  0.000  0.000  0.000  0.000  0.000    3.55   0.00   0.00      0      0  416.4   0.22   0.22    0.0   0.60    0.31    0.31    0.26    0.09    0.03    0.00    0.00    0.00    0.00    0.00       11      27
 1980 128    37    22    5.3      0  0.869    207    120      0     98    327    327      0     0.0  0.000      0      0  0.000  0.000  0.000  0.000  0.000  0.000  0.000    3.56   0.00   0.00      0      0  419.2   0.24   0.25    0.0   0.62    0.32    0.32    0.27    0.10    0.03    0.01    0.00    0.00    0.00    0.00       13      29
 1980 129    38    23    5.6      0  1.018    241    140      0    102    381    381      0     0.0  0.000      0      0  0.000  0.000  0.000  0.000  0.000  0.000  0.000    3.56   0.00   0.00      0      0  422.5   0.26   0.27    0.0   0.64    0.33    0.33    0.27    0.10    0.04    0.01    0.00    0.00    0.00    0.00       15      31
 1980 130    39    24    5.9      0  1.177    279    164      0    107    442    442      0     0.0  0.000      0      0  0.000  0.000  0.000  0.000  0.000  0.000  0.000    3.57   0.00   0.00      0      0  422.3   0.28   0.29    0.0   0.65    0.34    0.34    0.28    0.11    0.04    0.01    0.00    0.00    0.00    0.00       18      33
 1980 131    40    25    6.2      0  1.369    321    191      0    113    512    512      0     0.0  0.000      0      0  0.000  0.000  0.000  0.000  0.000  0.000  0.000    3.57   0.00   0.00      0      0  426.2   0.31   0.31    0.0   0.67    0.35    0.35    0.29    0.12    0.05    0.02    0.00    0.00    0.00    0.00       21      36
 1980 132    41    26    6.5      1  1.557    365    222      0    120    588    588      0     0.0  0.000      0      0  0.000  0.000  0.000  0.000  0.000  0.000  0.000    3.59   0.00   0.00      0      0  426.3   0.34   0.33    0.0   0.69    0.37    0.37    0.30    0.13    0.06    0.02    0.00    0.00    0.00    0.00       29      38
 1980 133    42    27    6.8      1  1.719    406    257      0    128    663    663      0     0.0  0.000      0      0  0.000  0.000  0.000  0.000  0.000  0.000  0.000    3.65   0.00   0.00      0      0  423.6   0.37   0.36    0.0   0.71    0.39    0.39    0.31    0.14    0.06    0.03    0.00    0.00    0.00    0.00       47      41
 1980 134    43    28    7.1      1  1.881    438    289      0    134    728    728      0     0.0  0.000      0      0  0.000  0.000  0.000  0.000  0.000  0.000  0.000    3.70   0.00   0.00      0      0  429.0   0.40   0.38    0.0   0.72    0.40    0.40    0.33    0.15    0.07    0.03    0.00    0.00    0.00    0.00       67      44
 1980 135    44    29    7.4      3  2.022    477    330      0    143    807    807      0     0.0  0.000      0      0  0.000  0.000  0.000  0.000  0.000  0.000  0.000    3.76   0.00   0.00      0      0  424.3   0.43   0.40    0.0   0.74    0.42    0.42    0.34    0.16    0.08    0.03    0.01    0.00    0.00    0.00       89      46
 1980 136    45    30    7.7      3  2.130    510    372      0    151    882    886      0     0.0  0.000      3      4  0.000  0.000  0.000  0.000  0.000  0.000  0.000    3.82   0.00   0.00      0      3  417.3   0.46   0.42    0.0   0.76    0.44    0.44    0.35    0.17    0.09    0.04    0.01    0.00    0.00    0.00      116      49
 1980 137    46    31    7.9      3  2.196    543    418      0    160    960    975      0     0.0  0.000     14     13  0.000  0.000  0.000  0.000  0.000  0.000  0.000    3.89   0.00   0.01      0     14  404.7   0.49   0.44    0.0   0.77    0.46    0.46    0.37    0.18    0.10    0.04    0.01    0.00    0.00    0.00      147      52
 1980 138    47    32    8.2      3  2.279    580    467      0    168   1047   1080      0     0.0  0.000     33     23  0.000  0.000  0.000  0.000  0.000  0.000  0.000    3.90   0.00   0.03      0     33  392.8   0.52   0.46    0.0   0.79    0.48    0.48    0.38    0.19    0.10    0.05    0.02    0.00    0.00    0.00      167      56
 1980 139    48    33    8.5      3  2.355    617    517      0    175   1134   1194      0     0.0  0.000     61     33  0.000  0.000  0.000  0.000  0.000  0.000  0.000    3.89   0.00   0.05      0     61  381.8   0.55   0.48    0.0   0.81    0.49    0.49    0.39    0.20    0.11    0.05    0.02    0.00    0.00    0.00      182      59
 1980 140    49    34    8.8      3  2.415    650    566      0    181   1216   1313      0     0.0  0.000     97     44  0.000  0.000  0.000  0.000  0.000  0.000  0.000    3.88   0.00   0.07      0     97  371.5   0.58   0.50    0.0   0.82    0.51    0.51    0.40    0.20    0.12    0.06    0.02    0.00    0.00    0.00      197      63
 1980 141    50    35    9.1      3  2.459    682    616      0    188   1298   1439      0     0.0  0.000    141     55  0.000  0.000  0.000  0.000  0.000  0.000  0.000    3.86   0.00   0.10      0    141  360.4   0.61   0.52    0.0   0.84    0.52    0.52    0.41    0.21    0.12    0.06    0.03    0.00    0.00    0.00      210      67
 1980 142    51    36    9.5      5  2.485    705    658      0    192   1363   1560      0     0.0  0.000    196     66  0.000  0.000  0.000  0.000  0.000  0.000  0.000    3.84   0.00   0.13      0    196  352.5   0.64   0.54    0.0   0.86    0.53    0.53    0.42    0.22    0.13    0.06    0.03    0.00    0.00    0.00      225      71
 1980 143    52    37    9.8      5  2.506    728    701      0    196   1429   1687     13     0.0  0.000    259     78  0.000  0.000  0.000  0.000  0.000  0.000  0.000    3.81   0.00   0.15      0    259  344.4   0.68   0.55    0.0   0.87    0.54    0.54    0.42    0.22    0.13    0.07    0.03    0.00    0.00    0.00      237      75
 1980 144    53    38   10.1      5  2.511    745    739      5    198   1484   1811     75     6.8  0.003    327     89  0.000  0.000  0.000  0.000  0.000  0.000  0.000    3.79   1.57   0.18      0    327  337.1   0.71   0.57    0.0   0.89    0.54    0.54    0.42    0.23    0.13    0.07    0.03    0.00    0.00    0.00      254      80
 1980 145    54    39   10.1      5  2.496    750    761     34    199   1511   1937    109    31.5  0.018    425    101  0.000  0.000  0.000  0.000  0.000  0.000  0.000    3.77   8.06   0.22      0    425  332.7   0.75   0.58    0.0   0.91    0.54    0.54    0.42    0.23    0.13    0.07    0.03    0.00    0.00    0.00      268      84
 1980 146    55    40   10.1      5  2.473    752    780     75    198   1532   2066    144    52.1  0.036    534    112  0.000  0.000  0.000  0.000  0.000  0.000  0.000    3.76  14.06   0.26      0    534  328.8   0.79   0.60    0.0   0.92    0.54    0.54    0.42    0.23    0.13    0.07    0.03    0.00    0.00    0.00      284      88
 1980 147    56    41   10.1      5  2.428    741    781    131    195   1522   2185    181    72.4  0.060    663    124  0.000  0.000  0.000  0.000  0.000  0.000  0.000    3.71  19.84   0.30      0    663  327.6   0.82   0.60    0.0   0.94    0.53    0.53    0.42    0.22    0.13    0.07    0.03    0.00    0.00    0.00      300      92
 1980 148    57    42   10.1      5  2.374    724    772    202    191   1496   2301    219    92.2  0.088    805    136  0.000  0.000  0.000  0.000  0.000  0.000  0.000    3.65  25.06   0.35      0    805  328.0   0.82   0.60    0.0   0.96    0.52    0.52    0.41    0.22    0.13    0.07    0.03    0.00    0.00    0.00      317      97
 1980 149    58    43   10.1      5  2.314    703    760    285    187   1463   2415    258   110.5  0.118    953    147  0.000  0.000  0.000  0.000  0.000  0.000  0.000    3.59  29.94   0.39      0    953  329.2   0.82   0.60    0.0   0.97    0.51    0.51    0.40    0.21    0.13    0.06    0.03    0.00    0.00    0.00      335     101
 1980 150    59    44   10.1      5  2.252    681    747    384    182   1428   2531    298   128.8  0.152   1102    156  0.000  0.000  0.000  0.000  0.000  0.000  0.000    3.51  34.84   0.44      0   1102  330.4   0.82   0.60    0.0   0.99    0.50    0.50    0.39    0.21    0.13    0.06    0.03    0.00    0.00    0.00      354     105
 1980 151    60    45   10.1      5  2.185    659    733    501    178   1392   2638    340   147.6  0.190   1246    163  0.000  0.000  0.000  0.000  0.000  0.000  0.000    3.43  40.26   0.47      0   1246  331.8   0.82   0.60    0.0   0.99    0.49    0.49    0.38    0.20    0.12    0.06    0.03    0.00    0.00    0.00      374     109
 1980 152    61    46   10.1      5  2.118    636    720    632    174   1356   2752    381   165.9  0.229   1397    167  0.000  0.000  0.000  0.000  0.000  0.000  0.000    3.35  45.23   0.51      0   1397  333.1   0.82   0.60    0.0   0.99    0.48    0.48    0.37    0.20    0.12    0.06    0.03    0.00    0.00    0.00      394     113
 1980 153    62    47   10.1      5  2.050    613    707    782    170   1320   2861    381   205.4  0.273   1541    170  0.000  0.000  0.000  0.000  0.000  0.000  0.000    3.25  50.76   0.54      0   1541  334.5   0.82   0.60    0.0   0.99    0.47    0.47    0.37    0.20    0.12    0.06    0.03    0.00    0.00    0.00      411     116
 1980 154    63    48   10.1      7  1.995    594    697    921    166   1291   2952    413   223.0  0.312   1661    167  0.000  0.000  0.000  0.000  0.000  0.000  0.000    3.17  55.48   0.56      0   1661  335.5   0.82   0.60    0.0   0.99    0.46    0.46    0.36    0.19    0.12    0.06    0.03    0.00    0.00    0.00      437     119
 1980 155    64    49   10.1      7  1.473    437    644   1080    163   1081   2874    433   249.3  0.376   1793    160  0.000  0.000  0.000  0.000  0.000  0.000  0.000    2.99  60.20   0.62      0   1793  337.3   0.82   0.60    0.0   0.99    0.45    0.45    0.35    0.19    0.11    0.06    0.03    0.00    0.00    0.00      647     122
 1980 156    65    50   10.1      7  1.089    322    605   1205    159    927   2833    436   276.2  0.425   1907    149  0.000  0.000  0.000  0.000  0.000  0.000  0.000    2.81  63.20   0.67      0   1907  338.7   0.82   0.60    0.0   0.99    0.44    0.44    0.34    0.18    0.11    0.06    0.03    0.00    0.00    0.00      794     126
 1980 157    66    51   10.1      7  0.806    237    576   1304    155    813   2812    436   298.9  0.464   1999    140  0.000  0.000  0.000  0.000  0.000  0.000  0.000    2.65  65.22   0.71      0   1999  340.0   0.82   0.60    0.0   0.99    0.43    0.43    0.34    0.18    0.11    0.06    0.03    0.00    0.00    0.00      899     129
 1980 158    67    52   10.1      7  0.597    175    553   1378    152    728   2795    436   315.9  0.493   2067    132  0.000  0.000  0.000  0.000  0.000  0.000  0.000    2.49  66.67   0.74      0   2067  341.4   0.82   0.60    0.0   0.99    0.42    0.42    0.33    0.18    0.11    0.05    0.03    0.00    0.00    0.00      976     132
 1980 159    68    53   10.1      7  0.443    129    536   1433    148    665   2782    436   328.6  0.515   2117    127  0.000  0.000  0.000  0.000  0.000  0.000  0.000    2.35  67.72   0.76      0   2117  342.6   0.82   0.60    0.0   0.99    0.41    0.41    0.32    0.17    0.10    0.05    0.03    0.00    0.00    0.00     1033     136
 1980 160    69    54   10.1      7  0.329     96    522   1474    145    618   2769    436   337.9  0.532   2152    125  0.000  0.000  0.000  0.000  0.000  0.000  0.000    2.22  68.50   0.78      0   2152  343.8   0.82   0.60    0.0   0.99    0.40    0.40    0.32    0.17    0.10    0.05    0.03    0.00    0.00    0.00     1075     139
 1980 161    70    55   10.1      7  0.245     71    511   1503    141    581   2757    436   344.6  0.545   2176    125  0.000  0.000  0.000  0.000  0.000  0.000  0.000    2.10  69.08   0.79      0   2176  345.2   0.82   0.60    0.0   0.99    0.39    0.39    0.31    0.17    0.10    0.05    0.03    0.00    0.00    0.00     1106     142
 1980 162    71    56   10.1      7  0.182     53    502   1522    139    555   2746    436   348.9  0.554   2191    125  0.000  0.000  0.000  0.000  0.000  0.000  0.000    2.03  69.47   0.80      0   2191  346.5   0.82   0.60    0.0   1.01    0.39    0.39    0.30    0.16    0.10    0.05    0.03    0.00    0.00    0.00     1129     145
 1980 163    72    57   10.1      8  0.136     39    495   1533    136    535   2734    436   351.5  0.561   2199    125  0.000  0.000  0.000  0.000  0.000  0.000  0.000    1.98  69.71   0.80      0   2199  347.8   0.82   0.60    0.0   1.01    0.38    0.38    0.30    0.16    0.10    0.05    0.02    0.00    0.00    0.00     1146     148

*DSSAT Cropping System Model Ver. 4.6.1.000 -release      JUL 11, 2017; 16:24:46
                                                                                
*RUN   2        : SIM                       CRGRO046 3\000003    1              
 MODEL          : CRGRO046 - Dry bean                                           
 EXPERIMENT     : 3\000003 BN PALMIRA_ANALISIS SENSIBILIDAD                     
 DATA PATH      : D:\B\0\00000                                                  
 TREATMENT  1   : SIM                       CRGRO046                            
  
!                                                                                                                                                                                                                                                    Root Dens. (cm/cm3) by soil depth (cm):
!                                                                                                                                                                                                                                                    0-5    5-15   15-25   25-35   35-50   50-65   65-80   80-99  99-122 122-209
@YEAR DOY   DAS   DAP   L#SD   GSTD   LAID   LWAD   SWAD   GWAD   RWAD   VWAD   CWAD   G#AD    GWGD   HIAD   PWAD   P#AD   WSPD   WSGD   NSTD  PST1A  PST2A   KSTD   EWSD    LN%D   SH%D   HIPD   PWDD   PWTD   SLAD   CHTD   CWID   NWAD   RDPD    RL1D    RL2D    RL3D    RL4D    RL5D    RL6D    RL7D    RL8D    RL9D   RL10D    SNW0C   SNW1C
 1981 106    15     0    0.0      0  0.000      0      0      0      0      0      0      0     0.0  0.000      0      0  0.000  0.000  0.000  0.000  0.000  0.000  0.000    0.00   0.00   0.00      0      0    0.0   0.00   0.00    0.0   0.00    0.00    0.00    0.00    0.00    0.00    0.00    0.00    0.00    0.00    0.00        0       0
 1981 107    16     1    0.0      0  0.000      0      0      0      0      0      0      0     0.0  0.000      0      0  0.000  0.000  0.000  0.000  0.000  0.000  0.000    0.00   0.00   0.00      0      0    0.0   0.00   0.00    0.0   0.00    0.00    0.00    0.00    0.00    0.00    0.00    0.00    0.00    0.00    0.00        0       0
 1981 108    17     2    0.0      0  0.000      0      0      0      0      0      0      0     0.0  0.000      0      0  0.000  0.000  0.000  0.000  0.000  0.000  0.000    0.00   0.00   0.00      0      0    0.0   0.00   0.00    0.0   0.00    0.00    0.00    0.00    0.00    0.00    0.00    0.00    0.00    0.00    0.00        0       0
 1981 109    18     3    0.0      0  0.000      0      0      0      0      0      0      0     0.0  0.000      0      0  0.000  0.000  0.000  0.000  0.000  0.000  0.000    0.00   0.00   0.00      0      0    0.0   0.00   0.00    0.0   0.00    0.00    0.00    0.00    0.00    0.00    0.00    0.00    0.00    0.00    0.00        0       0
 1981 110    19     4    0.0      0  0.000      0      0      0      0      0      0      0     0.0  0.000      0      0  0.000  0.000  0.000  0.000  0.000  0.000  0.000    0.00   0.00   0.00      0      0    0.0   0.00   0.00    0.0   0.00    0.00    0.00    0.00    0.00    0.00    0.00    0.00    0.00    0.00    0.00        0       0
 1981 111    20     5    0.2      0  0.079     31     13      0     43     44     44      0     0.0  0.000      0      0  0.000  0.000  0.000  0.000  0.000  0.000  0.000    3.84   0.00   0.00      0      0  256.6   0.04   0.03    0.0   0.27    0.15    0.15    0.15    0.00    0.00    0.00    0.00    0.00    0.00    0.00        0       1
 1981 112    21     6    0.5      0  0.082     31     14      0     51     45     45      0     0.0  0.000      0      0  0.000  0.000  0.653  0.000  0.000  0.000  0.000    3.78   0.00   0.00      0      0  261.6   0.05   0.03    0.0   0.29    0.18    0.18    0.18    0.01    0.00    0.00    0.00    0.00    0.00    0.00        0       2
 1981 113    22     7    0.8      0  0.084     32     15      0     59     46     46      0     0.0  0.000      0      0  0.000  0.000  0.742  0.000  0.000  0.000  0.000    3.73   0.00   0.00      0      0  265.1   0.06   0.04    0.0   0.31    0.21    0.21    0.20    0.02    0.00    0.00    0.00    0.00    0.00    0.00        0       3
 1981 114    23     8    1.1      0  0.087     32     16      0     67     48     48      0     0.0  0.000      0      0  0.000  0.000  0.576  0.000  0.000  0.000  0.000    3.71   0.00   0.00      0      0  270.8   0.07   0.04    0.0   0.33    0.24    0.24    0.22    0.03    0.00    0.00    0.00    0.00    0.00    0.00        0       4
 1981 115    24     9    1.3      0  0.091     33     18      0     74     51     51      0     0.0  0.000      0      0  0.000  0.000  0.498  0.000  0.000  0.000  0.000    3.68   0.00   0.00      0      0  276.8   0.08   0.05    0.0   0.36    0.26    0.26    0.23    0.04    0.00    0.00    0.00    0.00    0.00    0.00        1       6
 1981 116    25    10    1.7      0  0.096     34     21      0     80     54     54      0     0.0  0.000      0      0  0.000  0.000  0.437  0.000  0.000  0.000  0.000    3.66   0.00   0.00      0      0  285.0   0.09   0.06    0.0   0.38    0.28    0.28    0.25    0.06    0.00    0.00    0.00    0.00    0.00    0.00        1       7
 1981 117    26    11    1.9      0  0.107     35     23      0     84     59     59      0     0.0  0.000      0      0  0.000  0.000  0.290  0.000  0.000  0.000  0.000    3.64   0.00   0.00      0      0  303.6   0.10   0.07    0.0   0.40    0.29    0.29    0.25    0.06    0.00    0.00    0.00    0.00    0.00    0.00        2       9
 1981 118    27    12    2.2      0  0.129     41     26      0     84     67     67      0     0.0  0.000      0      0  0.000  0.000  0.000  0.000  0.000  0.000  0.000    3.64   0.00   0.00      0      0  314.7   0.11   0.07    0.0   0.42    0.29    0.29    0.25    0.06    0.00    0.00    0.00    0.00    0.00    0.00        2      10
 1981 119    28    13    2.5      0  0.157     47     31      0     85     78     78      0     0.0  0.000      0      0  0.000  0.000  0.000  0.000  0.000  0.000  0.000    3.58   0.00   0.00      0      0  332.8   0.12   0.08    0.0   0.44    0.30    0.30    0.25    0.07    0.01    0.00    0.00    0.00    0.00    0.00        2      12
 1981 120    29    14    2.8      0  0.183     53     37      0     87     90     90      0     0.0  0.000      0      0  0.000  0.000  0.000  0.000  0.000  0.000  0.000    3.55   0.00   0.00      0      0  347.2   0.12   0.09    0.0   0.46    0.30    0.30    0.26    0.07    0.01    0.00    0.00    0.00    0.00    0.00        3      14
 1981 121    30    15    3.1      0  0.236     64     40      0     87    104    104      0     0.0  0.000      0      0  0.000  0.000  0.000  0.000  0.000  0.000  0.000    3.54   0.00   0.00      0      0  367.4   0.13   0.10    0.0   0.48    0.30    0.30    0.26    0.07    0.01    0.00    0.00    0.00    0.00    0.00        4      16
 1981 122    31    16    3.4      0  0.290     76     46      0     87    122    122      0     0.0  0.000      0      0  0.000  0.000  0.000  0.000  0.000  0.000  0.000    3.53   0.00   0.00      0      0  379.3   0.14   0.11    0.0   0.50    0.30    0.30    0.26    0.07    0.01    0.00    0.00    0.00    0.00    0.00        4      17
 1981 123    32    17    3.7      0  0.343     88     54      0     89    142    142      0     0.0  0.000      0      0  0.000  0.000  0.000  0.000  0.000  0.000  0.000    3.52   0.00   0.00      0      0  388.7   0.15   0.13    0.0   0.52    0.30    0.30    0.26    0.08    0.02    0.00    0.00    0.00    0.00    0.00        5      19
 1981 124    33    18    3.9      0  0.394     99     66      0     91    165    165      0     0.0  0.000      0      0  0.000  0.000  0.000  0.000  0.000  0.000  0.000    3.51   0.00   0.00      0      0  397.7   0.17   0.15    0.0   0.54    0.31    0.31    0.26    0.08    0.02    0.00    0.00    0.00    0.00    0.00        6      21
 1981 125    34    19    4.2      0  0.445    110     80      0     94    190    190      0     0.0  0.000      0      0  0.000  0.000  0.000  0.000  0.000  0.000  0.000    3.51   0.00   0.00      0      0  403.5   0.18   0.17    0.0   0.56    0.31    0.31    0.26    0.09    0.02    0.00    0.00    0.00    0.00    0.00        7      23
 1981 126    35    20    4.5      0  0.548    131     87      0     94    218    218      0     0.0  0.000      0      0  0.000  0.000  0.000  0.000  0.000  0.000  0.000    3.53   0.00   0.00      0      0  417.2   0.19   0.19    0.0   0.57    0.31    0.31    0.26    0.09    0.03    0.00    0.00    0.00    0.00    0.00        8      25
 1981 127    36    21    4.8      0  0.670    159     96      0     95    254    254      0     0.0  0.000      0      0  0.000  0.000  0.000  0.000  0.000  0.000  0.000    3.55   0.00   0.00      0      0  421.8   0.21   0.21    0.0   0.59    0.32    0.32    0.26    0.09    0.03    0.00    0.00    0.00    0.00    0.00       10      27
 1981 128    37    22    5.0      0  0.767    181    108      0     98    289    289      0     0.0  0.000      0      0  0.000  0.000  0.000  0.000  0.000  0.000  0.000    3.55   0.00   0.00      0      0  423.7   0.22   0.23    0.0   0.61    0.32    0.32    0.27    0.09    0.03    0.00    0.00    0.00    0.00    0.00       11      28
 1981 129    38    23    5.3      0  0.893    210    126      0    101    336    336      0     0.0  0.000      0      0  0.000  0.000  0.000  0.000  0.000  0.000  0.000    3.56   0.00   0.00      0      0  424.4   0.24   0.24    0.0   0.62    0.33    0.33    0.27    0.10    0.04    0.01    0.00    0.00    0.00    0.00       13      30
 1981 130    39    24    5.6      0  1.045    244    146      0    105    389    389      0     0.0  0.000      0      0  0.000  0.000  0.000  0.000  0.000  0.000  0.000    3.56   0.00   0.00      0      0  429.2   0.26   0.26    0.0   0.64    0.34    0.34    0.28    0.10    0.04    0.01    0.00    0.00    0.00    0.00       16      32
 1981 131    40    25    5.9      0  1.215    281    169      0    110    450    450      0     0.0  0.000      0      0  0.000  0.000  0.000  0.000  0.000  0.000  0.000    3.57   0.00   0.00      0      0  432.4   0.28   0.29    0.0   0.66    0.35    0.35    0.29    0.11    0.05    0.01    0.00    0.00    0.00    0.00       18      35
 1981 132    41    26    6.2      0  1.407    324    196      0    116    520    520      0     0.0  0.000      0      0  0.000  0.000  0.000  0.000  0.000  0.000  0.000    3.57   0.00   0.00      0      0  434.7   0.31   0.31    0.0   0.67    0.36    0.36    0.30    0.12    0.05    0.02    0.00    0.00    0.00    0.00       22      37
 1981 133    42    27    6.5      1  1.604    367    228      0    123    596    596      0     0.0  0.000      0      0  0.000  0.000  0.000  0.000  0.000  0.000  0.000    3.59   0.00   0.00      0      0  436.7   0.33   0.33    0.0   0.69    0.38    0.38    0.31    0.13    0.06    0.02    0.00    0.00    0.00    0.00       29      39
 1981 134    43    28    6.8      1  1.763    407    263      0    131    669    669      0     0.0  0.000      0      0  0.000  0.000  0.000  0.000  0.000  0.000  0.000    3.65   0.00   0.00      0      0  433.5   0.36   0.35    0.0   0.71    0.40    0.40    0.32    0.14    0.07    0.03    0.00    0.00    0.00    0.00       46      42
 1981 135    44    29    7.1      3  1.896    448    302      0    139    749    749      0     0.0  0.000      0      0  0.000  0.000  0.000  0.000  0.000  0.000  0.000    3.71   0.00   0.00      0      0  423.8   0.39   0.37    0.0   0.72    0.42    0.42    0.34    0.15    0.07    0.03    0.00    0.00    0.00    0.00       66      45
 1981 136    45    30    7.3      3  2.029    482    341      0    147    822    822      0     0.0  0.000      0      0  0.000  0.000  0.000  0.000  0.000  0.000  0.000    3.76   0.00   0.00      0      0  421.1   0.42   0.39    0.0   0.74    0.43    0.43    0.35    0.16    0.08    0.04    0.01    0.00    0.00    0.00       90      47
 1981 137    46    31    7.6      3  2.133    518    386      0    155    905    907      0     0.0  0.000      3      3  0.000  0.000  0.000  0.000  0.000  0.000  0.000    3.82   0.00   0.00      0      3  411.5   0.45   0.41    0.0   0.76    0.45    0.45    0.36    0.17    0.09    0.04    0.01    0.00    0.00    0.00      116      51
 1981 138    47    32    7.9      3  2.198    549    432      0    164    982    995      0     0.0  0.000     13     12  0.000  0.000  0.000  0.000  0.000  0.000  0.000    3.89   0.00   0.01      0     13  400.1   0.48   0.44    0.0   0.77    0.47    0.47    0.38    0.18    0.10    0.05    0.01    0.00    0.00    0.00      148      54
 1981 139    48    33    8.2      3  2.275    586    482      0    172   1069   1100      0     0.0  0.000     32     22  0.000  0.000  0.000  0.000  0.000  0.000  0.000    3.90   0.00   0.03      0     32  387.9   0.51   0.45    0.0   0.79    0.49    0.49    0.39    0.19    0.11    0.05    0.02    0.00    0.00    0.00      168      57
 1981 140    49    34    8.5      3  2.348    624    534      0    179   1157   1216      0     0.0  0.000     58     33  0.000  0.000  0.000  0.000  0.000  0.000  0.000    3.90   0.00   0.05      0     58  376.5   0.54   0.47    0.0   0.81    0.51    0.51    0.40    0.20    0.11    0.05    0.02    0.00    0.00    0.00      184      61
 1981 141    50    35    8.8      3  2.407    657    584      0    186   1241   1335      0     0.0  0.000     94     43  0.000  0.000  0.000  0.000  0.000  0.000  0.000    3.88   0.00   0.07      0     94  366.4   0.57   0.49    0.0   0.82    0.52    0.52    0.41    0.21    0.12    0.06    0.02    0.00    0.00    0.00      199      65
 1981 142    51    36    9.1      3  2.451    688    634      0    192   1322   1460      0     0.0  0.000    138     54  0.000  0.000  0.000  0.000  0.000  0.000  0.000    3.87   0.00   0.09      0    138  356.3   0.60   0.51    0.0   0.84    0.53    0.53    0.42    0.22    0.13    0.06    0.03    0.00    0.00    0.00      213      69
 1981 143    52    37    9.4      5  2.476    711    676      0    196   1387   1580      0     0.0  0.000    193     66  0.000  0.000  0.000  0.000  0.000  0.000  0.000    3.85   0.00   0.12      0    193  348.4   0.64   0.53    0.0   0.86    0.54    0.54    0.42    0.22    0.13    0.06    0.03    0.00    0.00    0.00      226      73
 1981 144    53    38    9.7      5  2.493    732    717      0    199   1449   1706     10     0.0  0.000    257     77  0.000  0.000  0.000  0.000  0.000  0.000  0.000    3.82   0.00   0.15      0    257  340.7   0.67   0.55    0.0   0.87    0.55    0.55    0.43    0.23    0.13    0.07    0.03    0.00    0.00    0.00      237      77
 1981 145    54    39   10.0      5  2.496    747    751      4    202   1498   1829     42     9.8  0.002    331     89  0.000  0.000  0.000  0.000  0.000  0.000  0.000    3.79   1.24   0.18      0    331  334.1   0.70   0.56    0.0   0.89    0.55    0.55    0.43    0.23    0.14    0.07    0.03    0.00    0.00    0.00      250      81
 1981 146    55    40   10.0      5  2.484    755    778     20    203   1533   1951     75    27.3  0.010    418    101  0.000  0.000  0.000  0.000  0.000  0.000  0.000    3.77   4.88   0.21      0    418  329.0   0.73   0.57    0.0   0.90    0.55    0.55    0.43    0.23    0.14    0.07    0.03    0.00    0.00    0.00      263      85
 1981 147    56    41   10.0      5  2.460    756    796     50    202   1552   2073    109    45.6  0.024    521    113  0.000  0.000  0.000  0.000  0.000  0.000  0.000    3.75   9.55   0.25      0    521  325.3   0.77   0.59    0.0   0.92    0.55    0.55    0.43    0.23    0.14    0.07    0.03    0.00    0.00    0.00      277      89
 1981 148    57    42   10.0      5  2.419    751    807     92    201   1557   2194    145    63.7  0.042    637    125  0.000  0.000  0.000  0.000  0.000  0.000  0.000    3.69  14.46   0.29      0    637  322.3   0.80   0.60    0.0   0.94    0.55    0.55    0.43    0.23    0.14    0.07    0.04    0.00    0.00    0.00      292      93
 1981 149    58    43   10.0      5  2.367    736    803    149    197   1539   2308    182    81.7  0.064    769    138  0.000  0.000  0.000  0.000  0.000  0.000  0.000    3.64  19.33   0.33      0    769  321.7   0.84   0.60    0.0   0.95    0.54    0.54    0.42    0.23    0.14    0.07    0.03    0.00    0.00    0.00      308      98
 1981 150    59    44   10.0      5  2.311    716    792    220    193   1509   2424    221    99.3  0.091    915    150  0.000  0.000  0.000  0.000  0.000  0.000  0.000    3.57  23.98   0.38      0    915  322.5   0.84   0.60    0.0   0.97    0.53    0.53    0.41    0.22    0.13    0.07    0.03    0.00    0.00    0.00      325     102
 1981 151    60    45   10.0      5  2.252    695    779    306    189   1475   2539    262   116.8  0.120   1065    159  0.000  0.000  0.000  0.000  0.000  0.000  0.000    3.51  28.71   0.42      0   1065  323.8   0.84   0.60    0.0   0.97    0.52    0.52    0.40    0.22    0.13    0.07    0.03    0.00    0.00    0.00      342     106
 1981 152    61    46   10.0      5  2.187    673    765    409    184   1438   2645    304   134.6  0.155   1208    167  0.000  0.000  0.000  0.000  0.000  0.000  0.000    3.43  33.88   0.46      0   1208  325.1   0.84   0.60    0.0   0.97    0.50    0.50    0.39    0.21    0.13    0.06    0.03    0.00    0.00    0.00      360     110
 1981 153    62    47   10.0      5  2.119    649    751    528    180   1400   2755    346   152.4  0.192   1355    171  0.000  0.000  0.000  0.000  0.000  0.000  0.000    3.34  38.94   0.49      0   1355  326.5   0.84   0.60    0.0   0.97    0.49    0.49    0.39    0.21    0.12    0.06    0.03    0.00    0.00    0.00      379     114
 1981 154    63    48   10.0      5  2.050    625    737    660    176   1362   2869    389   169.7  0.230   1507    173  0.000  0.000  0.000  0.000  0.000  0.000  0.000    3.24  43.78   0.53      0   1507  327.8   0.84   0.60    0.0   0.98    0.48    0.48    0.38    0.20    0.12    0.06    0.03    0.00    0.00    0.00      399     118
 1981 155    64    49   10.0      7  1.982    602    723    809    171   1325   2983    431   187.7  0.271   1658    173  0.000  0.000  0.000  0.000  0.000  0.000  0.000    3.14  48.80   0.56      0   1658  329.3   0.84   0.60    0.0   0.98    0.47    0.47    0.37    0.20    0.12    0.06    0.03    0.00    0.00    0.00      419     121
 1981 156    65    50   10.0      7  1.462    442    671    968    167   1113   2909    467   207.1  0.333   1796    171  0.000  0.000  0.000  0.000  0.000  0.000  0.000    2.94  53.88   0.62      0   1796  330.6   0.84   0.60    0.0   0.98    0.46    0.46    0.36    0.19    0.12    0.06    0.03    0.00    0.00    0.00      625     125
 1981 157    66    51   10.0      7  1.081    326    631   1094    163    956   2856    479   228.3  0.383   1899    162  0.000  0.000  0.000  0.000  0.000  0.000  0.000    2.76  57.60   0.67      0   1899  332.0   0.84   0.60    0.0   0.98    0.45    0.45    0.35    0.19    0.11    0.06    0.03    0.00    0.00    0.00      783     129
 1981 158    67    52   10.0      7  0.800    240    601   1184    160    840   2822    479   247.2  0.420   1982    144  0.000  0.000  0.000  0.000  0.000  0.000  0.000    2.60  59.76   0.70      0   1982  333.5   0.84   0.60    0.0   0.98    0.44    0.44    0.35    0.19    0.11    0.06    0.03    0.00    0.00    0.00      889     132
 1981 159    68    53   10.0      7  0.593    177    577   1255    156    754   2800    479   262.0  0.448   2045    144  0.000  0.000  0.000  0.000  0.000  0.000  0.000    2.46  61.37   0.73      0   2045  335.0   0.84   0.60    0.0   0.98    0.43    0.43    0.34    0.18    0.11    0.06    0.03    0.00    0.00    0.00      967     135
 1981 160    69    54   10.0      7  0.441    131    559   1308    153    690   2782    479   273.0  0.470   2092    140  0.000  0.000  0.000  0.000  0.000  0.000  0.000    2.34  62.53   0.75      0   2092  336.3   0.84   0.60    0.0   0.98    0.43    0.43    0.33    0.18    0.11    0.05    0.03    0.00    0.00    0.00     1025     138
 1981 161    70    55   10.0      7  0.328     97    545   1349    150    642   2769    479   281.6  0.487   2127    137  0.000  0.000  0.000  0.000  0.000  0.000  0.000    2.22  63.43   0.77      0   2127  337.7   0.84   0.60    0.0   0.98    0.42    0.42    0.33    0.18    0.11    0.05    0.03    0.00    0.00    0.00     1067     141
 1981 162    71    56   10.0      7  0.244     72    533   1379    146    605   2756    479   287.9  0.500   2151    137  0.000  0.000  0.000  0.000  0.000  0.000  0.000    2.11  64.13   0.78      0   2151  339.2   0.84   0.60    0.0   0.98    0.41    0.41    0.32    0.17    0.10    0.05    0.03    0.00    0.00    0.00     1099     145
 1981 163    72    57   10.0      7  0.182     53    525   1397    143    578   2742    479   291.5  0.509   2164    137  0.000  0.000  0.000  0.000  0.000  0.000  0.000    2.04  64.53   0.79      0   2164  340.5   0.84   0.60    0.0   0.98    0.40    0.40    0.31    0.17    0.10    0.05    0.03    0.00    0.00    0.00     1122     148
 1981 164    73    58   10.0      8  0.136     40    518   1408    140    558   2730    479   293.8  0.516   2172    137  0.000  0.000  0.000  0.000  0.000  0.000  0.000    2.01  64.81   0.80      0   2172  341.7   0.84   0.60    0.0   0.98    0.39    0.39    0.31    0.16    0.10    0.05    0.03    0.00    0.00    0.00     1139     151

*DSSAT Cropping System Model Ver. 4.6.1.000 -release      JUL 11, 2017; 16:24:46
                                                                                
*RUN   3        : SIM                       CRGRO046 3\000003    1              
 MODEL          : CRGRO046 - Dry bean                                           
 EXPERIMENT     : 3\000003 BN PALMIRA_ANALISIS SENSIBILIDAD                     
 DATA PATH      : D:\B\0\00000                                                  
 TREATMENT  1   : SIM                       CRGRO046                            
  
!                                                                                                                                                                                                                                                    Root Dens. (cm/cm3) by soil depth (cm):
!                                                                                                                                                                                                                                                    0-5    5-15   15-25   25-35   35-50   50-65   65-80   80-99  99-122 122-209
@YEAR DOY   DAS   DAP   L#SD   GSTD   LAID   LWAD   SWAD   GWAD   RWAD   VWAD   CWAD   G#AD    GWGD   HIAD   PWAD   P#AD   WSPD   WSGD   NSTD  PST1A  PST2A   KSTD   EWSD    LN%D   SH%D   HIPD   PWDD   PWTD   SLAD   CHTD   CWID   NWAD   RDPD    RL1D    RL2D    RL3D    RL4D    RL5D    RL6D    RL7D    RL8D    RL9D   RL10D    SNW0C   SNW1C
 1982 106    15     0    0.0      0  0.000      0      0      0      0      0      0      0     0.0  0.000      0      0  0.000  0.000  0.000  0.000  0.000  0.000  0.000    0.00   0.00   0.00      0      0    0.0   0.00   0.00    0.0   0.00    0.00    0.00    0.00    0.00    0.00    0.00    0.00    0.00    0.00    0.00        0       0
 1982 107    16     1    0.0      0  0.000      0      0      0      0      0      0      0     0.0  0.000      0      0  0.000  0.000  0.000  0.000  0.000  0.000  0.000    0.00   0.00   0.00      0      0    0.0   0.00   0.00    0.0   0.00    0.00    0.00    0.00    0.00    0.00    0.00    0.00    0.00    0.00    0.00        0       0
 1982 108    17     2    0.0      0  0.000      0      0      0      0      0      0      0     0.0  0.000      0      0  0.000  0.000  0.000  0.000  0.000  0.000  0.000    0.00   0.00   0.00      0      0    0.0   0.00   0.00    0.0   0.00    0.00    0.00    0.00    0.00    0.00    0.00    0.00    0.00    0.00    0.00        0       0
 1982 109    18     3    0.0      0  0.000      0      0      0      0      0      0      0     0.0  0.000      0      0  0.000  0.000  0.000  0.000  0.000  0.000  0.000    0.00   0.00   0.00      0      0    0.0   0.00   0.00    0.0   0.00    0.00    0.00    0.00    0.00    0.00    0.00    0.00    0.00    0.00    0.00        0       0
 1982 110    19     4    0.0      0  0.000      0      0      0      0      0      0      0     0.0  0.000      0      0  0.000  0.000  0.000  0.000  0.000  0.000  0.000    0.00   0.00   0.00      0      0    0.0   0.00   0.00    0.0   0.00    0.00    0.00    0.00    0.00    0.00    0.00    0.00    0.00    0.00    0.00        0       0
 1982 111    20     5    0.2      0  0.079     31     13      0     43     44     44      0     0.0  0.000      0      0  0.000  0.000  0.000  0.000  0.000  0.000  0.000    3.84   0.00   0.00      0      0  256.8   0.04   0.03    0.0   0.27    0.15    0.15    0.15    0.00    0.00    0.00    0.00    0.00    0.00    0.00        0       1
 1982 112    21     6    0.5      0  0.082     31     14      0     51     45     45      0     0.0  0.000      0      0  0.000  0.000  0.664  0.000  0.000  0.000  0.000    3.78   0.00   0.00      0      0  261.1   0.05   0.03    0.0   0.29    0.18    0.18    0.18    0.01    0.00    0.00    0.00    0.00    0.00    0.00        0       2
 1982 113    22     7    0.8      0  0.084     32     15      0     59     46     46      0     0.0  0.000      0      0  0.000  0.000  0.741  0.000  0.000  0.000  0.000    3.73   0.00   0.00      0      0  264.7   0.06   0.04    0.0   0.31    0.21    0.21    0.20    0.02    0.00    0.00    0.00    0.00    0.00    0.00        0       3
 1982 114    23     8    1.1      0  0.088     32     16      0     67     49     49      0     0.0  0.000      0      0  0.000  0.000  0.543  0.000  0.000  0.000  0.000    3.71   0.00   0.00      0      0  270.2   0.07   0.04    0.0   0.33    0.24    0.24    0.22    0.03    0.00    0.00    0.00    0.00    0.00    0.00        0       4
 1982 115    24     9    1.4      0  0.092     33     18      0     74     51     51      0     0.0  0.000      0      0  0.000  0.000  0.485  0.000  0.000  0.000  0.000    3.69   0.00   0.00      0      0  275.5   0.08   0.05    0.0   0.36    0.26    0.26    0.23    0.04    0.00    0.00    0.00    0.00    0.00    0.00        1       6
 1982 116    25    10    1.7      0  0.097     34     21      0     80     55     55      0     0.0  0.000      0      0  0.000  0.000  0.401  0.000  0.000  0.000  0.000    3.66   0.00   0.00      0      0  283.4   0.09   0.06    0.0   0.38    0.28    0.28    0.25    0.05    0.00    0.00    0.00    0.00    0.00    0.00        1       7
 1982 117    26    11    2.0      0  0.112     38     25      0     83     63     63      0     0.0  0.000      0      0  0.000  0.000  0.118  0.000  0.000  0.000  0.000    3.65   0.00   0.00      0      0  296.9   0.10   0.07    0.0   0.40    0.29    0.29    0.25    0.06    0.00    0.00    0.00    0.00    0.00    0.00        2       9
 1982 118    27    12    2.2      0  0.134     42     28      0     84     70     70      0     0.0  0.000      0      0  0.000  0.000  0.058  0.000  0.000  0.000  0.000    3.60   0.00   0.00      0      0  321.5   0.11   0.07    0.0   0.42    0.29    0.29    0.25    0.06    0.00    0.00    0.00    0.00    0.00    0.00        2      10
 1982 119    28    13    2.5      0  0.160     47     33      0     85     80     80      0     0.0  0.000      0      0  0.000  0.000  0.000  0.000  0.000  0.000  0.000    3.57   0.00   0.00      0      0  339.5   0.12   0.08    0.0   0.44    0.30    0.30    0.25    0.07    0.01    0.00    0.00    0.00    0.00    0.00        2      12
 1982 120    29    14    2.8      0  0.189     54     39      0     87     93     93      0     0.0  0.000      0      0  0.000  0.000  0.000  0.000  0.000  0.000  0.000    3.53   0.00   0.00      0      0  351.7   0.13   0.09    0.0   0.46    0.30    0.30    0.26    0.07    0.01    0.00    0.00    0.00    0.00    0.00        3      14
 1982 121    30    15    3.1      0  0.243     66     42      0     87    108    108      0     0.0  0.000      0      0  0.000  0.000  0.000  0.000  0.000  0.000  0.000    3.53   0.00   0.00      0      0  369.7   0.14   0.10    0.0   0.48    0.30    0.30    0.25    0.07    0.01    0.00    0.00    0.00    0.00    0.00        4      16
 1982 122    31    16    3.4      0  0.298     77     48      0     87    126    126      0     0.0  0.000      0      0  0.000  0.000  0.000  0.000  0.000  0.000  0.000    3.52   0.00   0.00      0      0  384.9   0.15   0.11    0.0   0.50    0.30    0.30    0.26    0.07    0.01    0.00    0.00    0.00    0.00    0.00        4      18
 1982 123    32    17    3.7      0  0.352     90     57      0     89    147    147      0     0.0  0.000      0      0  0.000  0.000  0.000  0.000  0.000  0.000  0.000    3.51   0.00   0.00      0      0  393.1   0.16   0.13    0.0   0.52    0.30    0.30    0.26    0.08    0.02    0.00    0.00    0.00    0.00    0.00        5      19
 1982 124    33    18    4.0      0  0.407    101     69      0     91    171    171      0     0.0  0.000      0      0  0.000  0.000  0.000  0.000  0.000  0.000  0.000    3.51   0.00   0.00      0      0  400.9   0.17   0.15    0.0   0.54    0.31    0.31    0.26    0.08    0.02    0.00    0.00    0.00    0.00    0.00        6      21
 1982 125    34    19    4.3      0  0.464    114     84      0     94    197    197      0     0.0  0.000      0      0  0.000  0.000  0.000  0.000  0.000  0.000  0.000    3.50   0.00   0.00      0      0  409.0   0.18   0.17    0.0   0.56    0.31    0.31    0.26    0.09    0.02    0.00    0.00    0.00    0.00    0.00        7      23
 1982 126    35    20    4.6      0  0.572    138     92      0     94    229    229      0     0.0  0.000      0      0  0.000  0.000  0.000  0.000  0.000  0.000  0.000    3.53   0.00   0.00      0      0  414.7   0.20   0.20    0.0   0.58    0.31    0.31    0.26    0.09    0.03    0.00    0.00    0.00    0.00    0.00        9      25
 1982 127    36    21    4.9      0  0.702    166    101      0     95    267    267      0     0.0  0.000      0      0  0.000  0.000  0.000  0.000  0.000  0.000  0.000    3.55   0.00   0.00      0      0  422.0   0.22   0.22    0.0   0.60    0.32    0.32    0.26    0.09    0.03    0.00    0.00    0.00    0.00    0.00       10      27
 1982 128    37    22    5.2      0  0.831    194    117      0     99    311    311      0     0.0  0.000      0      0  0.000  0.000  0.000  0.000  0.000  0.000  0.000    3.55   0.00   0.00      0      0  428.0   0.23   0.24    0.0   0.62    0.32    0.32    0.27    0.09    0.03    0.01    0.00    0.00    0.00    0.00       12      29
 1982 129    38    23    5.5      0  0.976    226    136      0    102    361    361      0     0.0  0.000      0      0  0.000  0.000  0.000  0.000  0.000  0.000  0.000    3.56   0.00   0.00      0      0  432.6   0.26   0.26    0.0   0.63    0.33    0.33    0.27    0.10    0.04    0.01    0.00    0.00    0.00    0.00       14      31
 1982 130    39    24    5.8      0  1.135    261    158      0    107    419    419      0     0.0  0.000      0      0  0.000  0.000  0.000  0.000  0.000  0.000  0.000    3.56   0.00   0.00      0      0  434.7   0.28   0.29    0.0   0.65    0.34    0.34    0.28    0.11    0.04    0.01    0.00    0.00    0.00    0.00       17      34
 1982 131    40    25    6.1      0  1.320    302    183      0    112    485    485      0     0.0  0.000      0      0  0.000  0.000  0.000  0.000  0.000  0.000  0.000    3.57   0.00   0.00      0      0  437.6   0.30   0.31    0.0   0.67    0.35    0.35    0.29    0.11    0.05    0.02    0.00    0.00    0.00    0.00       20      36
 1982 132    41    26    6.4      1  1.519    347    214      0    119    560    560      0     0.0  0.000      0      0  0.000  0.000  0.000  0.000  0.000  0.000  0.000    3.57   0.00   0.00      0      0  438.4   0.33   0.33    0.0   0.68    0.37    0.37    0.30    0.12    0.06    0.02    0.00    0.00    0.00    0.00       24      38
 1982 133    42    27    6.7      1  1.692    385    246      0    126    631    631      0     0.0  0.000      0      0  0.000  0.000  0.000  0.000  0.000  0.000  0.000    3.63   0.00   0.00      0      0  439.0   0.36   0.35    0.0   0.70    0.39    0.39    0.31    0.13    0.06    0.02    0.00    0.00    0.00    0.00       40      41
 1982 134    43    28    7.0      1  1.845    425    282      0    134    708    708      0     0.0  0.000      0      0  0.000  0.000  0.000  0.000  0.000  0.000  0.000    3.69   0.00   0.00      0      0  433.7   0.39   0.38    0.0   0.72    0.40    0.40    0.33    0.14    0.07    0.03    0.00    0.00    0.00    0.00       60      44
 1982 135    44    29    7.3      3  1.977    465    324      0    143    789    789      0     0.0  0.000      0      0  0.000  0.000  0.000  0.000  0.000  0.000  0.000    3.76   0.00   0.00      0      0  425.0   0.42   0.40    0.0   0.74    0.42    0.42    0.34    0.15    0.08    0.03    0.01    0.00    0.00    0.00       83      47
 1982 136    45    30    7.6      3  2.072    502    369      0    151    871    874      0     0.0  0.000      3      4  0.000  0.000  0.000  0.000  0.000  0.000  0.000    3.82   0.00   0.00      0      3  412.4   0.45   0.42    0.0   0.75    0.44    0.44    0.35    0.17    0.09    0.04    0.01    0.00    0.00    0.00      111      50
 1982 137    46    31    7.9      3  2.143    535    414      0    160    949    962      0     0.0  0.000     13     12  0.000  0.000  0.000  0.000  0.000  0.000  0.000    3.89   0.00   0.01      0     13  400.7   0.48   0.44    0.0   0.77    0.46    0.46    0.37    0.18    0.10    0.04    0.01    0.00    0.00    0.00      143      53
 1982 138    47    32    8.2      3  2.230    569    460      0    167   1028   1059      0     0.0  0.000     31     21  0.000  0.000  0.000  0.000  0.000  0.000  0.000    3.91   0.00   0.03      0     31  392.2   0.51   0.46    0.0   0.79    0.48    0.48    0.38    0.19    0.10    0.05    0.02    0.00    0.00    0.00      164      56
 1982 139    48    33    8.5      3  2.308    605    507      0    174   1112   1169      0     0.0  0.000     58     32  0.000  0.000  0.000  0.000  0.000  0.000  0.000    3.90   0.00   0.05      0     58  381.7   0.54   0.48    0.0   0.80    0.49    0.49    0.39    0.19    0.11    0.05    0.02    0.00    0.00    0.00      178      60
 1982 140    49    34    8.8      3  2.369    636    553      0    181   1189   1282      0     0.0  0.000     94     42  0.000  0.000  0.000  0.000  0.000  0.000  0.000    3.89   0.00   0.07      0     94  372.5   0.57   0.50    0.0   0.82    0.51    0.51    0.40    0.20    0.12    0.06    0.02    0.00    0.00    0.00      193      63
 1982 141    50    35    9.1      3  2.409    658    589      0    185   1247   1385      0     0.0  0.000    139     53  0.000  0.000  0.000  0.000  0.000  0.000  0.000    3.87   0.00   0.10      0    139  366.3   0.60   0.52    0.0   0.83    0.51    0.51    0.41    0.21    0.12    0.06    0.02    0.00    0.00    0.00      205      67
 1982 142    51    36    9.3      5  2.446    682    629      0    189   1311   1504      0     0.0  0.000    193     64  0.000  0.000  0.000  0.000  0.000  0.000  0.000    3.84   0.00   0.13      0    193  358.6   0.63   0.53    0.0   0.85    0.52    0.52    0.41    0.21    0.12    0.06    0.03    0.00    0.00    0.00      215      70
 1982 143    52    37    9.6      5  2.468    705    670      0    193   1375   1629     13     0.0  0.000    254     75  0.000  0.000  0.000  0.000  0.000  0.000  0.000    3.82   0.00   0.16      0    254  350.2   0.66   0.55    0.0   0.87    0.53    0.53    0.42    0.22    0.13    0.06    0.03    0.00    0.00    0.00      226      74
 1982 144    53    38    9.9      5  2.475    723    707      5    196   1429   1756     40    13.1  0.003    327     87  0.000  0.000  0.000  0.000  0.000  0.000  0.000    3.80   1.60   0.19      0    327  342.5   0.70   0.56    0.0   0.88    0.54    0.54    0.42    0.22    0.13    0.06    0.03    0.00    0.00    0.00      238      78
 1982 145    54    39    9.9      5  2.463    726    723     21    195   1449   1864     73    28.7  0.011    415     99  0.000  0.000  0.000  0.000  0.000  0.000  0.000    3.77   5.05   0.22      0    415  339.3   0.73   0.58    0.0   0.90    0.53    0.53    0.42    0.22    0.13    0.07    0.03    0.00    0.00    0.00      248      82
 1982 146    55    40    9.9      5  2.445    730    744     49    195   1474   1989    108    45.9  0.025    515    110  0.000  0.000  0.000  0.000  0.000  0.000  0.000    3.76   9.60   0.26      0    515  334.9   0.76   0.59    0.0   0.91    0.53    0.53    0.42    0.22    0.13    0.07    0.03    0.00    0.00    0.00      260      86
 1982 147    56    41    9.9      5  2.405    722    748     92    193   1470   2101    144    63.9  0.044    631    122  0.000  0.000  0.000  0.000  0.000  0.000  0.000    3.71  14.58   0.30      0    631  333.2   0.80   0.60    0.0   0.93    0.53    0.53    0.41    0.22    0.13    0.07    0.03    0.00    0.00    0.00      273      90
 1982 148    57    42    9.9      5  2.358    709    745    149    190   1454   2215    182    81.6  0.067    761    134  0.000  0.000  0.000  0.000  0.000  0.000  0.000    3.65  19.54   0.34      0    761  332.7   0.83   0.60    0.0   0.94    0.52    0.52    0.41    0.22    0.13    0.06    0.03    0.00    0.00    0.00      287      94
 1982 149    58    43    9.9      5  2.305    690    734    220    185   1424   2330    218   101.1  0.095    906    145  0.000  0.000  0.000  0.000  0.000  0.000  0.000    3.60  24.32   0.39      0    906  333.9   0.83   0.60    0.0   0.96    0.51    0.51    0.40    0.21    0.13    0.06    0.03    0.00    0.00    0.00      301      98
 1982 150    59    44    9.9      5  2.249    671    722    305    181   1393   2446    257   118.6  0.125   1052    157  0.000  0.000  0.000  0.000  0.000  0.000  0.000    3.54  28.97   0.43      0   1052  335.1   0.83   0.60    0.0   0.96    0.50    0.50    0.39    0.21    0.12    0.06    0.03    0.00    0.00    0.00      317     102
 1982 151    60    45    9.9      5  2.186    650    710    403    177   1360   2559    298   135.1  0.158   1199    166  0.000  0.000  0.000  0.000  0.000  0.000  0.000    3.46  33.62   0.47      0   1199  336.3   0.83   0.60    0.0   0.98    0.49    0.49    0.38    0.20    0.12    0.06    0.03    0.00    0.00    0.00      334     106
 1982 152    61    46    9.9      5  2.120    628    697    518    172   1325   2670    341   152.0  0.194   1345    173  0.000  0.000  0.000  0.000  0.000  0.000  0.000    3.37  38.48   0.50      0   1345  337.6   0.83   0.60    0.0   0.99    0.48    0.48    0.37    0.20    0.12    0.06    0.03    0.00    0.00    0.00      352     110
 1982 153    62    47    9.9      5  2.052    605    684    648    168   1290   2782    378   171.7  0.233   1492    177  0.000  0.000  0.000  0.000  0.000  0.000  0.000    3.28  43.45   0.54      0   1492  339.0   0.83   0.60    0.0   0.99    0.47    0.47    0.36    0.19    0.12    0.06    0.03    0.00    0.00    0.00      371     113
 1982 154    63    48    9.9      5  1.981    582    671    794    164   1253   2888    459   173.1  0.275   1635    179  0.000  0.000  0.000  0.000  0.000  0.000  0.000    3.17  48.59   0.57      0   1635  340.4   0.83   0.60    0.0   0.99    0.46    0.46    0.36    0.19    0.11    0.06    0.03    0.00    0.00    0.00      394     117
 1982 155    64    49    9.9      7  1.916    561    660    939    160   1221   2976    481   195.4  0.316   1755    173  0.000  0.000  0.000  0.000  0.000  0.000  0.000    3.07  53.52   0.59      0   1755  341.5   0.83   0.60    0.0   0.99    0.45    0.45    0.35    0.19    0.11    0.06    0.03    0.00    0.00    0.00      425     121
 1982 156    65    50    9.9      7  1.415    413    612   1087    157   1024   2918    481   226.1  0.372   1894    162  0.000  0.000  0.000  0.000  0.000  0.000  0.000    2.88  57.40   0.65      0   1894  343.0   0.83   0.60    0.0   0.99    0.44    0.44    0.34    0.18    0.11    0.05    0.03    0.00    0.00    0.00      607     124
 1982 157    66    51    9.9      7  1.047    304    575   1205    153    879   2883    481   250.7  0.418   2004    152  0.000  0.000  0.000  0.000  0.000  0.000  0.000    2.71  60.13   0.70      0   2004  344.3   0.83   0.60    0.0   0.99    0.43    0.43    0.33    0.18    0.11    0.05    0.03    0.00    0.00    0.00      741     127
 1982 158    67    52    9.9      7  0.775    225    549   1298    149    774   2863    481   270.0  0.453   2090    145  0.000  0.000  0.000  0.000  0.000  0.000  0.000    2.55  62.10   0.73      0   2090  345.1   0.83   0.60    0.0   0.99    0.42    0.42    0.33    0.17    0.10    0.05    0.03    0.00    0.00    0.00      840     131
 1982 159    68    53    9.9      7  0.575    166    528   1368    146    694   2847    481   284.6  0.481   2153    140  0.000  0.000  0.000  0.000  0.000  0.000  0.000    2.40  63.54   0.76      0   2153  346.6   0.83   0.60    0.0   0.99    0.41    0.41    0.32    0.17    0.10    0.05    0.03    0.00    0.00    0.00      913     134
 1982 160    69    54    9.9      7  0.427    123    511   1420    143    633   2832    481   295.4  0.501   2198    138  0.000  0.000  0.000  0.000  0.000  0.000  0.000    2.27  64.59   0.78      0   2198  348.0   0.83   0.60    0.0   0.99    0.40    0.40    0.31    0.17    0.10    0.05    0.02    0.00    0.00    0.00      967     137
 1982 161    70    55    9.9      7  0.317     91    498   1458    139    589   2819    481   303.3  0.517   2230    137  0.000  0.000  0.000  0.000  0.000  0.000  0.000    2.15  65.37   0.79      0   2230  349.5   0.83   0.60    0.0   0.99    0.39    0.39    0.31    0.16    0.10    0.05    0.02    0.00    0.00    0.00     1007     140
 1982 162    71    56    9.9      7  0.236     67    487   1485    136    555   2806    481   308.9  0.529   2252    137  0.000  0.000  0.000  0.000  0.000  0.000  0.000    2.04  65.95   0.80      0   2252  350.8   0.83   0.60    0.0   0.99    0.38    0.38    0.30    0.16    0.09    0.05    0.02    0.00    0.00    0.00     1036     143
 1982 163    72    57    9.9      7  0.176     50    480   1501    133    530   2793    481   312.3  0.537   2264    137  0.000  0.000  0.000  0.000  0.000  0.000  0.000    1.98  66.30   0.81      0   2264  352.2   0.83   0.60    0.0   0.99    0.37    0.37    0.29    0.16    0.09    0.05    0.02    0.00    0.00    0.00     1058     146
 1982 164    73    58    9.9      8  0.132     37    474   1510    130    511   2781    481   314.1  0.543   2270    137  0.000  0.000  0.000  0.000  0.000  0.000  0.000    1.95  66.52   0.82      0   2270  353.4   0.83   0.60    0.0   0.99    0.37    0.37    0.29    0.15    0.09    0.05    0.02    0.00    0.00    0.00     1075     149

*DSSAT Cropping System Model Ver. 4.6.1.000 -release      JUL 11, 2017; 16:24:46
                                                                                
*RUN   4        : SIM                       CRGRO046 3\000003    1              
 MODEL          : CRGRO046 - Dry bean                                           
 EXPERIMENT     : 3\000003 BN PALMIRA_ANALISIS SENSIBILIDAD                     
 DATA PATH      : D:\B\0\00000                                                  
 TREATMENT  1   : SIM                       CRGRO046                            
  
!                                                                                                                                                                                                                                                    Root Dens. (cm/cm3) by soil depth (cm):
!                                                                                                                                                                                                                                                    0-5    5-15   15-25   25-35   35-50   50-65   65-80   80-99  99-122 122-209
@YEAR DOY   DAS   DAP   L#SD   GSTD   LAID   LWAD   SWAD   GWAD   RWAD   VWAD   CWAD   G#AD    GWGD   HIAD   PWAD   P#AD   WSPD   WSGD   NSTD  PST1A  PST2A   KSTD   EWSD    LN%D   SH%D   HIPD   PWDD   PWTD   SLAD   CHTD   CWID   NWAD   RDPD    RL1D    RL2D    RL3D    RL4D    RL5D    RL6D    RL7D    RL8D    RL9D   RL10D    SNW0C   SNW1C
 1983 106    15     0    0.0      0  0.000      0      0      0      0      0      0      0     0.0  0.000      0      0  0.000  0.000  0.000  0.000  0.000  0.000  0.000    0.00   0.00   0.00      0      0    0.0   0.00   0.00    0.0   0.00    0.00    0.00    0.00    0.00    0.00    0.00    0.00    0.00    0.00    0.00        0       0
 1983 107    16     1    0.0      0  0.000      0      0      0      0      0      0      0     0.0  0.000      0      0  0.000  0.000  0.000  0.000  0.000  0.000  0.000    0.00   0.00   0.00      0      0    0.0   0.00   0.00    0.0   0.00    0.00    0.00    0.00    0.00    0.00    0.00    0.00    0.00    0.00    0.00        0       0
 1983 108    17     2    0.0      0  0.000      0      0      0      0      0      0      0     0.0  0.000      0      0  0.000  0.000  0.000  0.000  0.000  0.000  0.000    0.00   0.00   0.00      0      0    0.0   0.00   0.00    0.0   0.00    0.00    0.00    0.00    0.00    0.00    0.00    0.00    0.00    0.00    0.00        0       0
 1983 109    18     3    0.0      0  0.000      0      0      0      0      0      0      0     0.0  0.000      0      0  0.000  0.000  0.000  0.000  0.000  0.000  0.000    0.00   0.00   0.00      0      0    0.0   0.00   0.00    0.0   0.00    0.00    0.00    0.00    0.00    0.00    0.00    0.00    0.00    0.00    0.00        0       0
 1983 110    19     4    0.0      0  0.000      0      0      0      0      0      0      0     0.0  0.000      0      0  0.000  0.000  0.000  0.000  0.000  0.000  0.000    0.00   0.00   0.00      0      0    0.0   0.00   0.00    0.0   0.00    0.00    0.00    0.00    0.00    0.00    0.00    0.00    0.00    0.00    0.00        0       0
 1983 111    20     5    0.2      0  0.079     31     13      0     43     44     44      0     0.0  0.000      0      0  0.000  0.000  0.000  0.000  0.000  0.000  0.000    3.84   0.00   0.00      0      0  256.7   0.04   0.03    0.0   0.27    0.15    0.15    0.15    0.00    0.00    0.00    0.00    0.00    0.00    0.00        0       1
 1983 112    21     6    0.5      0  0.082     31     14      0     51     45     45      0     0.0  0.000      0      0  0.000  0.000  0.654  0.000  0.000  0.000  0.000    3.78   0.00   0.00      0      0  261.7   0.05   0.03    0.0   0.29    0.18    0.18    0.18    0.01    0.00    0.00    0.00    0.00    0.00    0.00        0       2
 1983 113    22     7    0.8      0  0.084     32     15      0     59     46     46      0     0.0  0.000      0      0  0.000  0.000  0.740  0.000  0.000  0.000  0.000    3.72   0.00   0.00      0      0  265.3   0.06   0.04    0.0   0.31    0.21    0.21    0.20    0.02    0.00    0.00    0.00    0.00    0.00    0.00        0       3
 1983 114    23     8    1.1      0  0.087     32     16      0     67     48     48      0     0.0  0.000      0      0  0.000  0.000  0.595  0.000  0.000  0.000  0.000    3.70   0.00   0.00      0      0  271.2   0.07   0.04    0.0   0.33    0.24    0.24    0.22    0.03    0.00    0.00    0.00    0.00    0.00    0.00        0       4
 1983 115    24     9    1.4      0  0.091     33     18      0     74     51     51      0     0.0  0.000      0      0  0.000  0.000  0.487  0.000  0.000  0.000  0.000    3.68   0.00   0.00      0      0  277.5   0.08   0.05    0.0   0.36    0.26    0.26    0.23    0.04    0.00    0.00    0.00    0.00    0.00    0.00        1       6
 1983 116    25    10    1.7      0  0.096     34     21      0     80     55     55      0     0.0  0.000      0      0  0.000  0.000  0.375  0.000  0.000  0.000  0.000    3.66   0.00   0.00      0      0  285.2   0.09   0.06    0.0   0.38    0.28    0.28    0.24    0.05    0.00    0.00    0.00    0.00    0.00    0.00        1       7
 1983 117    26    11    2.0      0  0.112     37     25      0     83     62     62      0     0.0  0.000      0      0  0.000  0.000  0.154  0.000  0.000  0.000  0.000    3.64   0.00   0.00      0      0  301.1   0.10   0.07    0.0   0.40    0.29    0.29    0.25    0.06    0.00    0.00    0.00    0.00    0.00    0.00        2       9
 1983 118    27    12    2.3      0  0.138     42     28      0     84     71     71      0     0.0  0.000      0      0  0.000  0.000  0.040  0.000  0.000  0.000  0.000    3.59   0.00   0.00      0      0  326.2   0.11   0.07    0.0   0.42    0.29    0.29    0.25    0.06    0.00    0.00    0.00    0.00    0.00    0.00        2      11
 1983 119    28    13    2.6      0  0.165     48     33      0     85     81     81      0     0.0  0.000      0      0  0.000  0.000  0.000  0.000  0.000  0.000  0.000    3.56   0.00   0.00      0      0  342.8   0.12   0.08    0.0   0.44    0.30    0.30    0.25    0.07    0.01    0.00    0.00    0.00    0.00    0.00        2      12
 1983 120    29    14    2.9      0  0.197     55     39      0     87     94     94      0     0.0  0.000      0      0  0.000  0.000  0.000  0.000  0.000  0.000  0.000    3.53   0.00   0.00      0      0  358.2   0.13   0.09    0.0   0.46    0.30    0.30    0.26    0.07    0.01    0.00    0.00    0.00    0.00    0.00        3      14
 1983 121    30    15    3.2      0  0.253     67     42      0     87    110    110      0     0.0  0.000      0      0  0.000  0.000  0.000  0.000  0.000  0.000  0.000    3.52   0.00   0.00      0      0  374.7   0.14   0.10    0.0   0.48    0.30    0.30    0.25    0.07    0.01    0.00    0.00    0.00    0.00    0.00        4      16
 1983 122    31    16    3.5      0  0.309     80     49      0     87    129    129      0     0.0  0.000      0      0  0.000  0.000  0.000  0.000  0.000  0.000  0.000    3.51   0.00   0.00      0      0  387.9   0.15   0.12    0.0   0.50    0.30    0.30    0.26    0.07    0.01    0.00    0.00    0.00    0.00    0.00        4      18
 1983 123    32    17    3.8      0  0.364     92     58      0     89    150    150      0     0.0  0.000      0      0  0.000  0.000  0.000  0.000  0.000  0.000  0.000    3.51   0.00   0.00      0      0  395.5   0.16   0.14    0.0   0.52    0.30    0.30    0.26    0.08    0.02    0.00    0.00    0.00    0.00    0.00        5      20
 1983 124    33    18    4.1      0  0.419    103     71      0     91    174    174      0     0.0  0.000      0      0  0.000  0.000  0.000  0.000  0.000  0.000  0.000    3.50   0.00   0.00      0      0  406.0   0.17   0.16    0.0   0.54    0.31    0.31    0.26    0.08    0.02    0.00    0.00    0.00    0.00    0.00        6      22
 1983 125    34    19    4.4      0  0.490    119     83      0     93    203    203      0     0.0  0.000      0      0  0.000  0.000  0.000  0.000  0.000  0.000  0.000    3.51   0.00   0.00      0      0  410.4   0.19   0.18    0.0   0.56    0.31    0.31    0.26    0.09    0.02    0.00    0.00    0.00    0.00    0.00        8      24
 1983 126    35    20    4.7      0  0.605    145     92      0     94    237    237      0     0.0  0.000      0      0  0.000  0.000  0.000  0.000  0.000  0.000  0.000    3.53   0.00   0.00      0      0  416.8   0.20   0.20    0.0   0.58    0.31    0.31    0.26    0.09    0.03    0.00    0.00    0.00    0.00    0.00        9      26
 1983 127    36    21    5.0      0  0.743    174    102      0     96    276    276      0     0.0  0.000      0      0  0.000  0.000  0.000  0.000  0.000  0.000  0.000    3.55   0.00   0.00      0      0  426.2   0.22   0.22    0.0   0.60    0.32    0.32    0.26    0.09    0.03    0.00    0.00    0.00    0.00    0.00       11      28
 1983 128    37    22    5.3      0  0.873    204    120      0     99    323    323      0     0.0  0.000      0      0  0.000  0.000  0.000  0.000  0.000  0.000  0.000    3.55   0.00   0.00      0      0  427.9   0.24   0.25    0.0   0.62    0.32    0.32    0.27    0.10    0.03    0.01    0.00    0.00    0.00    0.00       13      30
 1983 129    38    23    5.6      0  1.024    238    140      0    103    378    378      0     0.0  0.000      0      0  0.000  0.000  0.000  0.000  0.000  0.000  0.000    3.56   0.00   0.00      0      0  430.7   0.26   0.27    0.0   0.64    0.33    0.33    0.28    0.10    0.04    0.01    0.00    0.00    0.00    0.00       15      32
 1983 130    39    24    5.9      0  1.198    276    164      0    108    440    440      0     0.0  0.000      0      0  0.000  0.000  0.000  0.000  0.000  0.000  0.000    3.56   0.00   0.00      0      0  434.2   0.29   0.29    0.0   0.66    0.34    0.34    0.28    0.11    0.04    0.01    0.00    0.00    0.00    0.00       18      34
 1983 131    40    25    6.2      0  1.405    317    191      0    114    508    508      0     0.0  0.000      0      0  0.000  0.000  0.000  0.000  0.000  0.000  0.000    3.56   0.00   0.00      0      0  443.0   0.32   0.32    0.0   0.67    0.36    0.36    0.29    0.12    0.05    0.02    0.00    0.00    0.00    0.00       21      37
 1983 132    41    26    6.5      1  1.587    360    222      0    121    582    582      0     0.0  0.000      0      0  0.000  0.000  0.000  0.000  0.000  0.000  0.000    3.60   0.00   0.00      0      0  440.5   0.35   0.34    0.0   0.69    0.37    0.37    0.30    0.13    0.06    0.02    0.00    0.00    0.00    0.00       30      39
 1983 133    42    27    6.8      1  1.745    400    257      0    128    657    657      0     0.0  0.000      0      0  0.000  0.000  0.000  0.000  0.000  0.000  0.000    3.66   0.00   0.00      0      0  435.9   0.38   0.36    0.0   0.71    0.39    0.39    0.32    0.14    0.06    0.03    0.00    0.00    0.00    0.00       48      42
 1983 134    43    28    7.1      1  1.887    441    296      0    137    737    737      0     0.0  0.000      0      0  0.000  0.000  0.000  0.000  0.000  0.000  0.000    3.72   0.00   0.00      0      0  428.1   0.41   0.39    0.0   0.73    0.41    0.41    0.33    0.15    0.07    0.03    0.01    0.00    0.00    0.00       69      45
 1983 135    44    29    7.4      3  2.016    479    339      0    145    818    818      0     0.0  0.000      0      0  0.000  0.000  0.000  0.000  0.000  0.000  0.000    3.78   0.00   0.00      0      0  420.9   0.44   0.41    0.0   0.74    0.43    0.43    0.34    0.16    0.08    0.04    0.01    0.00    0.00    0.00       94      48
 1983 136    45    30    7.7      3  2.113    515    384      0    154    899    902      0     0.0  0.000      4      5  0.000  0.000  0.000  0.000  0.000  0.000  0.000    3.85   0.00   0.00      0      4  410.5   0.47   0.43    0.0   0.76    0.45    0.45    0.36    0.17    0.09    0.04    0.01    0.00    0.00    0.00      122      51
 1983 137    46    31    8.0      3  2.180    546    430      0    163    976    991      0     0.0  0.000     16     14  0.000  0.000  0.000  0.000  0.000  0.000  0.000    3.91   0.00   0.02      0     16  399.2   0.50   0.45    0.0   0.78    0.47    0.47    0.37    0.18    0.10    0.05    0.01    0.00    0.00    0.00      154      54
 1983 138    47    32    8.3      3  2.273    584    478      0    170   1062   1097      0     0.0  0.000     36     24  0.000  0.000  0.000  0.000  0.000  0.000  0.000    3.91   0.00   0.03      0     36  389.5   0.52   0.47    0.0   0.79    0.48    0.48    0.38    0.19    0.10    0.05    0.02    0.00    0.00    0.00      170      57
 1983 139    48    33    8.6      3  2.348    620    528      0    177   1148   1213      0     0.0  0.000     64     34  0.000  0.000  0.000  0.000  0.000  0.000  0.000    3.90   0.00   0.05      0     64  378.4   0.55   0.49    0.0   0.81    0.50    0.50    0.40    0.20    0.11    0.05    0.02    0.00    0.00    0.00      184      61
 1983 140    49    34    8.9      3  2.405    650    573      0    183   1223   1326      0     0.0  0.000    103     45  0.000  0.000  0.000  0.000  0.000  0.000  0.000    3.88   0.00   0.08      0    103  370.0   0.59   0.51    0.0   0.83    0.51    0.51    0.40    0.21    0.12    0.06    0.02    0.00    0.00    0.00      199      65
 1983 141    50    35    9.2      3  2.451    680    621      0    189   1301   1450      0     0.0  0.000    149     57  0.000  0.000  0.000  0.000  0.000  0.000  0.000    3.86   0.00   0.10      0    149  360.6   0.62   0.52    0.0   0.84    0.52    0.52    0.41    0.21    0.12    0.06    0.03    0.00    0.00    0.00      212      69
 1983 142    51    36    9.5      5  2.479    705    666      0    193   1371   1577      0     0.0  0.000    206     68  0.000  0.000  0.000  0.000  0.000  0.000  0.000    3.84   0.00   0.13      0    206  351.5   0.65   0.54    0.0   0.86    0.53    0.53    0.42    0.22    0.13    0.06    0.03    0.00    0.00    0.00      224      73
 1983 143    52    37    9.8      5  2.496    729    710      0    198   1439   1709     15     0.0  0.000    270     80  0.000  0.000  0.000  0.000  0.000  0.000  0.000    3.82   0.00   0.16      0    270  342.4   0.68   0.56    0.0   0.87    0.54    0.54    0.43    0.22    0.13    0.07    0.03    0.00    0.00    0.00      236      77
 1983 144    53    38   10.1      5  2.495    744    746      6    200   1489   1835     47    12.5  0.003    345     92  0.000  0.000  0.000  0.000  0.000  0.000  0.000    3.79   1.69   0.19      0    345  335.6   0.72   0.57    0.0   0.89    0.55    0.55    0.43    0.23    0.13    0.07    0.03    0.00    0.00    0.00      251      81
 1983 145    54    39   10.1      5  2.486    754    777     24    201   1531   1965     80    29.5  0.012    434    104  0.000  0.000  0.000  0.000  0.000  0.000  0.000    3.77   5.45   0.22      0    434  329.6   0.75   0.59    0.0   0.91    0.55    0.55    0.43    0.23    0.14    0.07    0.03    0.00    0.00    0.00      265      85
 1983 146    55    40   10.1      5  2.462    758    799     54    201   1557   2089    151    35.8  0.026    532    116  0.000  0.000  0.000  0.000  0.000  0.000  0.000    3.75  10.16   0.25      0    532  325.0   0.79   0.60    0.0   0.93    0.55    0.55    0.43    0.23    0.14    0.07    0.04    0.00    0.00    0.00      283      90
 1983 147    56    41   10.1      5  2.415    746    800    112    198   1546   2208    188    59.6  0.051    663    128  0.000  0.000  0.000  0.000  0.000  0.000  0.000    3.70  16.92   0.30      0    663  323.8   0.82   0.60    0.0   0.94    0.54    0.54    0.42    0.23    0.14    0.07    0.04    0.00    0.00    0.00      300      94
[...]
@YEAR DOY   DAS   DAP   L#SD   GSTD   LAID   LWAD   SWAD   GWAD   RWAD   VWAD   CWAD   G#AD    GWGD   HIAD   PWAD   P#AD   WSPD   WSGD   NSTD  PST1A  PST2A   KSTD   EWSD    LN%D   SH%D   HIPD   PWDD   PWTD   SLAD   CHTD   CWID   NWAD   RDPD    RL1D    RL2D    RL3D    RL4D    RL5D    RL6D    RL7D    RL8D    RL9D   RL10D    SNW0C   SNW1C
 2011 106    15     0    0.0      0  0.000      0      0      0      0      0      0      0     0.0  0.000      0      0  0.000  0.000  0.000  0.000  0.000  0.000  0.000    0.00   0.00   0.00      0      0    0.0   0.00   0.00    0.0   0.00    0.00    0.00    0.00    0.00    0.00    0.00    0.00    0.00    0.00    0.00        0       0
 2011 107    16     1    0.0      0  0.000      0      0      0      0      0      0      0     0.0  0.000      0      0  0.000  0.000  0.000  0.000  0.000  0.000  0.000    0.00   0.00   0.00      0      0    0.0   0.00   0.00    0.0   0.00    0.00    0.00    0.00    0.00    0.00    0.00    0.00    0.00    0.00    0.00        0       0
 2011 108    17     2    0.0      0  0.000      0      0      0      0      0      0      0     0.0  0.000      0      0  0.000  0.000  0.000  0.000  0.000  0.000  0.000    0.00   0.00   0.00      0      0    0.0   0.00   0.00    0.0   0.00    0.00    0.00    0.00    0.00    0.00    0.00    0.00    0.00    0.00    0.00        0       0
 2011 109    18     3    0.0      0  0.000      0      0      0      0      0      0      0     0.0  0.000      0      0  0.000  0.000  0.000  0.000  0.000  0.000  0.000    0.00   0.00   0.00      0      0    0.0   0.00   0.00    0.0   0.00    0.00    0.00    0.00    0.00    0.00    0.00    0.00    0.00    0.00    0.00        0       0
 2011 110    19     4    0.0      0  0.000      0      0      0      0      0      0      0     0.0  0.000      0      0  0.000  0.000  0.000  0.000  0.000  0.000  0.000    0.00   0.00   0.00      0      0    0.0   0.00   0.00    0.0   0.00    0.00    0.00    0.00    0.00    0.00    0.00    0.00    0.00    0.00    0.00        0       0
 2011 111    20     5    0.2      0  0.079     31     13      0     43     44     44      0     0.0  0.000      0      0  0.000  0.000  0.000  0.000  0.000  0.000  0.000    3.84   0.00   0.00      0      0  256.7   0.04   0.03    0.0   0.27    0.15    0.15    0.15    0.00    0.00    0.00    0.00    0.00    0.00    0.00        0       1
 2011 112    21     6    0.5      0  0.082     31     14      0     51     45     45      0     0.0  0.000      0      0  0.000  0.000  0.674  0.000  0.000  0.000  0.000    3.78   0.00   0.00      0      0  261.2   0.05   0.03    0.0   0.29    0.19    0.19    0.18    0.01    0.00    0.00    0.00    0.00    0.00    0.00        0       2
 2011 113    22     7    0.8      0  0.084     32     15      0     60     47     47      0     0.0  0.000      0      0  0.000  0.000  0.703  0.000  0.000  0.000  0.000    3.73   0.00   0.00      0      0  264.8   0.06   0.04    0.0   0.31    0.22    0.22    0.20    0.02    0.00    0.00    0.00    0.00    0.00    0.00        0       3
 2011 114    23     8    1.1      0  0.088     32     16      0     68     49     49      0     0.0  0.000      0      0  0.000  0.000  0.555  0.000  0.000  0.000  0.000    3.71   0.00   0.00      0      0  270.3   0.07   0.04    0.0   0.33    0.24    0.24    0.22    0.03    0.00    0.00    0.00    0.00    0.00    0.00        0       4
 2011 115    24     9    1.4      0  0.092     33     19      0     76     52     52      0     0.0  0.000      0      0  0.000  0.000  0.476  0.000  0.000  0.000  0.000    3.68   0.00   0.00      0      0  277.1   0.08   0.05    0.0   0.36    0.27    0.27    0.24    0.05    0.00    0.00    0.00    0.00    0.00    0.00        1       6
 2011 116    25    10    1.7      0  0.098     34     22      0     82     57     57      0     0.0  0.000      0      0  0.000  0.000  0.298  0.000  0.000  0.000  0.000    3.66   0.00   0.00      0      0  284.0   0.09   0.06    0.0   0.38    0.29    0.29    0.25    0.06    0.00    0.00    0.00    0.00    0.00    0.00        1       7
 2011 117    26    11    2.0      0  0.113     38     27      0     85     64     64      0     0.0  0.000      0      0  0.000  0.000  0.146  0.000  0.000  0.000  0.000    3.63   0.00   0.00      0      0  299.9   0.10   0.07    0.0   0.40    0.30    0.30    0.26    0.06    0.00    0.00    0.00    0.00    0.00    0.00        2       9
 2011 118    27    12    2.3      0  0.140     44     31      0     86     74     74      0     0.0  0.000      0      0  0.000  0.000  0.000  0.000  0.000  0.000  0.000    3.58   0.00   0.00      0      0  320.4   0.11   0.07    0.0   0.42    0.30    0.30    0.26    0.07    0.00    0.00    0.00    0.00    0.00    0.00        2      11
 2011 119    28    13    2.6      0  0.167     50     37      0     88     86     86      0     0.0  0.000      0      0  0.000  0.000  0.000  0.000  0.000  0.000  0.000    3.54   0.00   0.00      0      0  336.3   0.12   0.08    0.0   0.44    0.30    0.30    0.26    0.07    0.01    0.00    0.00    0.00    0.00    0.00        3      13
 2011 120    29    14    2.9      0  0.201     57     43      0     89    100    100      0     0.0  0.000      0      0  0.000  0.000  0.000  0.000  0.000  0.000  0.000    3.52   0.00   0.00      0      0  352.3   0.13   0.09    0.0   0.46    0.31    0.31    0.26    0.07    0.01    0.00    0.00    0.00    0.00    0.00        3      15
 2011 121    30    15    3.2      0  0.259     70     47      0     89    117    117      0     0.0  0.000      0      0  0.000  0.000  0.000  0.000  0.000  0.000  0.000    3.52   0.00   0.00      0      0  369.2   0.14   0.10    0.0   0.48    0.31    0.31    0.26    0.08    0.01    0.00    0.00    0.00    0.00    0.00        4      16
 2011 122    31    16    3.5      0  0.314     83     55      0     91    138    138      0     0.0  0.000      0      0  0.000  0.000  0.000  0.000  0.000  0.000  0.000    3.52   0.00   0.00      0      0  377.3   0.15   0.12    0.0   0.50    0.31    0.31    0.26    0.08    0.01    0.00    0.00    0.00    0.00    0.00        5      18
 2011 123    32    17    3.8      0  0.369     93     66      0     93    159    159      0     0.0  0.000      0      0  0.000  0.000  0.000  0.000  0.000  0.000  0.000    3.50   0.00   0.00      0      0  395.9   0.16   0.14    0.0   0.53    0.31    0.31    0.27    0.08    0.02    0.00    0.00    0.00    0.00    0.00        5      20
 2011 124    33    18    4.1      0  0.423    105     80      0     96    185    185      0     0.0  0.000      0      0  0.000  0.000  0.000  0.000  0.000  0.000  0.000    3.50   0.00   0.00      0      0  403.4   0.17   0.16    0.0   0.55    0.32    0.32    0.27    0.09    0.02    0.00    0.00    0.00    0.00    0.00        7      22
 2011 125    34    19    4.4      0  0.498    122     94      0     98    215    215      0     0.0  0.000      0      0  0.000  0.000  0.000  0.000  0.000  0.000  0.000    3.51   0.00   0.00      0      0  409.2   0.19   0.18    0.0   0.56    0.33    0.33    0.27    0.09    0.03    0.00    0.00    0.00    0.00    0.00        8      24
 2011 126    35    20    4.7      0  0.619    150    103      0     99    252    252      0     0.0  0.000      0      0  0.000  0.000  0.000  0.000  0.000  0.000  0.000    3.54   0.00   0.00      0      0  413.4   0.20   0.20    0.0   0.58    0.33    0.33    0.27    0.09    0.03    0.00    0.00    0.00    0.00    0.00        9      27
 2011 127    36    21    5.0      0  0.758    180    116      0    101    296    296      0     0.0  0.000      0      0  0.000  0.000  0.000  0.000  0.000  0.000  0.000    3.55   0.00   0.00      0      0  422.0   0.22   0.23    0.0   0.60    0.33    0.33    0.28    0.10    0.03    0.00    0.00    0.00    0.00    0.00       11      29
 2011 128    37    22    5.3      0  0.902    212    135      0    105    346    346      0     0.0  0.000      0      0  0.000  0.000  0.000  0.000  0.000  0.000  0.000    3.56   0.00   0.00      0      0  426.1   0.24   0.25    0.0   0.62    0.34    0.34    0.28    0.10    0.04    0.01    0.00    0.00    0.00    0.00       13      31
 2011 129    38    23    5.6      0  1.067    249    157      0    109    406    406      0     0.0  0.000      0      0  0.000  0.000  0.000  0.000  0.000  0.000  0.000    3.57   0.00   0.00      0      0  429.0   0.26   0.27    0.0   0.64    0.35    0.35    0.29    0.11    0.04    0.01    0.00    0.00    0.00    0.00       15      33
 2011 130    39    24    5.9      0  1.245    291    183      0    115    474    474      0     0.0  0.000      0      0  0.000  0.000  0.000  0.000  0.000  0.000  0.000    3.57   0.00   0.00      0      0  428.1   0.29   0.29    0.0   0.66    0.36    0.36    0.30    0.12    0.05    0.01    0.00    0.00    0.00    0.00       18      36
 2011 131    40    25    6.2      0  1.464    337    213      0    121    550    550      0     0.0  0.000      0      0  0.000  0.000  0.000  0.000  0.000  0.000  0.000    3.57   0.00   0.00      0      0  434.1   0.32   0.32    0.0   0.68    0.38    0.38    0.31    0.13    0.06    0.02    0.00    0.00    0.00    0.00       22      38
 2011 132    41    26    6.5      1  1.677    384    247      0    129    631    631      0     0.0  0.000      0      0  0.000  0.000  0.000  0.000  0.000  0.000  0.000    3.61   0.00   0.00      0      0  437.2   0.35   0.34    0.0   0.69    0.40    0.40    0.32    0.14    0.06    0.02    0.00    0.00    0.00    0.00       33      41
 2011 133    42    27    6.8      1  1.858    427    285      0    137    712    712      0     0.0  0.000      0      0  0.000  0.000  0.000  0.000  0.000  0.000  0.000    3.67   0.00   0.00      0      0  435.0   0.38   0.36    0.0   0.71    0.41    0.41    0.34    0.15    0.07    0.03    0.00    0.00    0.00    0.00       51      44
 2011 134    43    28    7.1      1  2.025    467    324      0    146    792    792      0     0.0  0.000      0      0  0.000  0.000  0.000  0.000  0.000  0.000  0.000    3.73   0.00   0.00      0      0  433.3   0.41   0.39    0.0   0.73    0.43    0.43    0.35    0.16    0.08    0.03    0.01    0.00    0.00    0.00       72      46
 2011 135    44    29    7.4      3  2.167    512    372      0    156    884    884      0     0.0  0.000      0      0  0.000  0.000  0.000  0.000  0.000  0.000  0.000    3.79   0.00   0.00      0      0  423.2   0.43   0.40    0.0   0.74    0.46    0.46    0.37    0.17    0.09    0.04    0.01    0.00    0.00    0.00       98      49
 2011 136    45    30    7.7      3  2.280    553    423      0    166    976    979      0     0.0  0.000      3      3  0.000  0.000  0.000  0.000  0.000  0.000  0.000    3.86   0.00   0.00      0      3  411.9   0.46   0.43    0.0   0.76    0.48    0.48    0.38    0.18    0.10    0.04    0.01    0.00    0.00    0.00      129      53
 2011 137    46    31    8.0      3  2.355    589    475      0    175   1064   1078      0     0.0  0.000     14     14  0.000  0.000  0.000  0.000  0.000  0.000  0.000    3.92   0.00   0.01      0     14  399.9   0.49   0.45    0.0   0.78    0.50    0.50    0.40    0.20    0.11    0.05    0.02    0.00    0.00    0.00      164      56
 2011 138    47    32    8.3      3  2.452    634    532      0    185   1166   1200      0     0.0  0.000     35     25  0.000  0.000  0.000  0.000  0.000  0.000  0.000    3.93   0.00   0.03      0     35  386.7   0.52   0.47    0.0   0.79    0.52    0.52    0.41    0.21    0.12    0.06    0.02    0.00    0.00    0.00      183      60
 2011 139    48    33    8.6      3  2.536    674    587      0    193   1262   1326      0     0.0  0.000     65     36  0.000  0.000  0.000  0.000  0.000  0.000  0.000    3.92   0.00   0.05      0     65  376.1   0.55   0.48    0.0   0.81    0.54    0.54    0.43    0.22    0.12    0.06    0.02    0.00    0.00    0.00      201      64
 2011 140    49    34    8.9      3  2.600    714    644      0    201   1358   1462      0     0.0  0.000    104     48  0.000  0.000  0.000  0.000  0.000  0.000  0.000    3.91   0.00   0.07      0    104  364.2   0.58   0.50    0.0   0.82    0.56    0.56    0.44    0.23    0.13    0.06    0.03    0.00    0.00    0.00      217      68
 2011 141    50    35    9.2      3  2.646    747    699      0    208   1446   1600      0     0.0  0.000    154     61  0.000  0.000  0.000  0.000  0.000  0.000  0.000    3.89   0.00   0.10      0    154  354.2   0.61   0.52    0.0   0.84    0.57    0.57    0.45    0.24    0.14    0.07    0.03    0.00    0.00    0.00      233      72
 2011 142    51    36    9.4      5  2.679    776    749      0    213   1525   1741      0     0.0  0.000    215     74  0.000  0.000  0.000  0.000  0.000  0.000  0.000    3.87   0.00   0.12      0    215  345.3   0.64   0.54    0.0   0.86    0.58    0.58    0.46    0.24    0.14    0.07    0.03    0.00    0.00    0.00      248      76
 2011 143    52    37    9.7      5  2.701    803    800      0    218   1602   1887     11     0.0  0.000    285     87  0.000  0.000  0.000  0.000  0.000  0.000  0.000    3.85   0.00   0.15      0    285  336.5   0.68   0.55    0.0   0.87    0.59    0.59    0.46    0.25    0.15    0.07    0.04    0.00    0.00    0.00      261      81
 2011 144    53    38   10.0      5  2.710    825    847      4    222   1671   2035     45     9.2  0.002    363    100  0.000  0.000  0.000  0.000  0.000  0.000  0.000    3.83   1.15   0.18      0    363  328.5   0.71   0.57    0.0   0.89    0.60    0.60    0.47    0.25    0.15    0.08    0.04    0.00    0.00    0.00      278      85
 2011 145    54    39   10.0      5  2.703    838    882     21    224   1720   2178     81    26.4  0.010    457    113  0.000  0.000  0.000  0.000  0.000  0.000  0.000    3.80   4.69   0.21      0    457  322.7   0.75   0.58    0.0   0.91    0.60    0.60    0.47    0.26    0.15    0.08    0.04    0.00    0.00    0.00      295      90
 2011 146    55    40   10.0      5  2.683    844    911     52    225   1756   2322    118    44.1  0.022    566    127  0.000  0.000  0.000  0.000  0.000  0.000  0.000    3.78   9.22   0.24      0    566  317.7   0.78   0.60    0.0   0.92    0.60    0.60    0.47    0.26    0.16    0.08    0.04    0.00    0.00    0.00      312      95
 2011 147    56    41   10.0      5  2.644    842    930     97    224   1771   2460    158    61.2  0.039    689    140  0.000  0.000  0.000  0.000  0.000  0.000  0.000    3.74  14.07   0.28      0    689  314.1   0.82   0.60    0.0   0.94    0.60    0.60    0.47    0.26    0.16    0.08    0.04    0.01    0.00    0.00      332     100
 2011 148    57    42   10.0      5  2.590    829    932    158    221   1761   2592    199    79.3  0.061    830    153  0.000  0.000  0.000  0.000  0.000  0.000  0.000    3.68  19.01   0.32      0    830  312.5   0.82   0.60    0.0   0.96    0.59    0.59    0.46    0.25    0.15    0.08    0.04    0.01    0.00    0.00      352     105
 2011 149    58    43   10.0      5  2.527    808    923    235    216   1732   2719    242    96.8  0.086    988    166  0.000  0.000  0.000  0.000  0.000  0.000  0.000    3.62  23.77   0.36      0    988  312.6   0.82   0.60    0.0   0.97    0.58    0.58    0.45    0.25    0.15    0.08    0.04    0.01    0.00    0.00      374     109
 2011 150    59    44   10.0      5  2.460    784    908    327    211   1692   2843    332    98.5  0.115   1151    178  0.000  0.000  0.000  0.000  0.000  0.000  0.000    3.55  28.42   0.40      0   1151  313.8   0.82   0.60    0.0   0.99    0.57    0.57    0.44    0.24    0.15    0.08    0.04    0.01    0.00    0.00      403     114
 2011 151    60    45   10.0      5  2.390    759    892    453    206   1651   2974    377   120.3  0.152   1323    188  0.000  0.000  0.000  0.000  0.000  0.000  0.000    3.48  34.25   0.44      0   1323  315.0   0.82   0.60    0.0   1.01    0.56    0.56    0.43    0.24    0.15    0.07    0.04    0.01    0.00    0.00      426     119
 2011 152    61    46   10.0      5  2.313    731    875    600    201   1606   3095    423   142.0  0.194   1489    196  0.000  0.000  0.000  0.000  0.000  0.000  0.000    3.38  40.33   0.48      0   1489  316.4   0.82   0.60    0.0   1.01    0.55    0.55    0.43    0.23    0.14    0.07    0.04    0.01    0.00    0.00      450     123
 2011 153    62    47   10.0      5  2.238    704    859    768    197   1563   3209    423   181.7  0.239   1647    201  0.000  0.000  0.000  0.000  0.000  0.000  0.000    3.29  46.67   0.51      0   1647  317.8   0.82   0.60    0.0   1.01    0.53    0.53    0.42    0.23    0.14    0.07    0.04    0.01    0.00    0.00      470     127
 2011 154    63    48   10.0      7  2.162    677    842    935    192   1520   3329    469   199.5  0.281   1809    201  0.000  0.000  0.000  0.000  0.000  0.000  0.000    3.19  51.67   0.54      0   1809  319.2   0.82   0.60    0.0   1.01    0.52    0.52    0.41    0.22    0.14    0.07    0.04    0.01    0.00    0.00      493     131
 2011 155    64    49   10.0      7  1.596    498    782   1098    188   1280   3224    495   221.7  0.341   1944    195  0.000  0.000  0.000  0.000  0.000  0.000  0.000    3.00  56.50   0.60      0   1944  320.7   0.82   0.60    0.0   1.01    0.51    0.51    0.40    0.22    0.13    0.07    0.04    0.01    0.00    0.00      733     135
 2011 156    65    50   10.0      7  1.179    367    738   1244    183   1105   3168    511   243.3  0.393   2064    185  0.000  0.000  0.000  0.000  0.000  0.000  0.000    2.81  60.27   0.65      0   2064  321.8   0.82   0.60    0.0   1.01    0.50    0.50    0.39    0.21    0.13    0.07    0.04    0.01    0.00    0.00      912     139
 2011 157    66    51   10.0      7  0.873    271    706   1357    179    977   3139    517   262.6  0.432   2162    173  0.000  0.000  0.000  0.000  0.000  0.000  0.000    2.64  62.77   0.69      0   2162  322.4   0.82   0.60    0.0   1.01    0.49    0.49    0.38    0.21    0.13    0.07    0.03    0.00    0.00    0.00     1039     143
 2011 158    67    52   10.0      7  0.647    200    680   1445    175    880   3123    517   279.7  0.463   2243    162  0.000  0.000  0.000  0.000  0.000  0.000  0.000    2.48  64.43   0.72      0   2243  323.7   0.82   0.60    0.0   1.01    0.48    0.48    0.37    0.21    0.12    0.06    0.03    0.00    0.00    0.00     1127     147
 2011 159    68    53   10.0      7  0.480    148    660   1511    171    808   3111    517   292.5  0.486   2303    154  0.000  0.000  0.000  0.000  0.000  0.000  0.000    2.34  65.63   0.74      0   2303  324.8   0.82   0.60    0.0   1.01    0.47    0.47    0.37    0.20    0.12    0.06    0.03    0.00    0.00    0.00     1192     151
 2011 160    69    54   10.0      7  0.356    109    645   1559    167    754   3099    517   301.8  0.503   2345    148  0.000  0.000  0.000  0.000  0.000  0.000  0.000    2.22  66.50   0.76      0   2345  325.7   0.82   0.60    0.0   1.01    0.46    0.46    0.36    0.20    0.12    0.06    0.03    0.00    0.00    0.00     1240     154
 2011 161    70    55   10.0      7  0.265     81    633   1593    163    715   3088    517   308.3  0.516   2373    148  0.000  0.000  0.000  0.000  0.000  0.000  0.000    2.09  67.12   0.77      0   2373  326.5   0.82   0.60    0.0   1.01    0.45    0.45    0.35    0.19    0.12    0.06    0.03    0.00    0.00    0.00     1275     158
 2011 162    71    56   10.0      7  0.197     60    623   1616    159    684   3075    517   312.8  0.526   2392    148  0.000  0.000  0.000  0.000  0.000  0.000  0.000    2.00  67.57   0.78      0   2392  327.6   0.82   0.60    0.0   1.02    0.44    0.44    0.34    0.19    0.11    0.06    0.03    0.00    0.00    0.00     1301     162
 2011 163    72    57   10.0      8  0.147     45    615   1630    156    660   3063    517   315.5  0.532   2402    148  0.000  0.000  0.000  0.000  0.000  0.000  0.000    1.95  67.85   0.78      0   2402  328.8   0.82   0.60    0.0   1.02    0.43    0.43    0.34    0.18    0.11    0.06    0.03    0.00    0.00    0.00     1321     165
