*SIMULATION OVERVIEW FILE

*DSSAT Cropping System Model Ver. 4.6.1.000 -release      JUL 11, 2017; 16:24:56
                                                                                
*RUN   1        : SIM                       CRGRO046 9\000009    1              
 MODEL          : CRGRO046 - Dry bean                                           
 EXPERIMENT     : 9\000009 BN PALMIRA_ANALISIS SENSIBILIDAD                     
 DATA PATH      : D:\B\0\00000                                                  
 TREATMENT  1   : SIM                       CRGRO046                            
                                                                                
                                                                                
 CROP           : Dry bean         CULTIVAR : Jatu Rong        ECOTYPE :ANDIND  
 STARTING DATE  : APR  1 1980                                                   
 PLANTING DATE  : AUTOMATIC PLANTING PLANTS/m2 : 26.6     ROW SPACING :  60.cm  
 WEATHER        : PALM   1980                                                   
 SOIL           : CCPA000030     TEXTURE : C     -   Silty Clay Loam            
 WATER BALANCE  : NOT SIMULATED ; NO H2O-STRESS                                 
 IRRIGATION     :                                                               
 NITROGEN BAL.  : NOT SIMULATED ; NO N-STRESS                                   
 N-FERTILIZER   :                                                               
 RESIDUE/MANURE :                                                               
 ENVIRONM. OPT. : DAYL=    0.00  SRAD=    0.00  TMAX=    0.00  TMIN=    0.00    
                  RAIN=    0.00  CO2 =    0.00  DEW =    0.00  WIND=    0.00    
 SIMULATION OPT : WATER   :N  NITROGEN:N  N-FIX:N  PHOSPH :N  PESTS  :N         
                  PHOTO   :L  ET      :R  INFIL:S  HYDROL :R  SOM    :G         
                  CO2 338ppm  NSWIT   :1  EVAP :S  SOIL   :2  STEMP  :D         
 MANAGEMENT OPT : PLANTING:A  IRRIG   :A  FERT :D  RESIDUE:N  HARVEST:M         
                  WEATHER :M  TILLAGE :N                                        
                                                                                
*SUMMARY OF SOIL AND GENETIC INPUT PARAMETERS                                   
                                                                                
 Dry bean   CULTIVAR :000009-Jatu Rong          ECOTYPE :ANDIND                 
 CSDVAR :12.17  PPSEN  : 0.05  EMG-FLW:26.00  FLW-FSD: 9.00  FSD-PHM : 11.00    
 WTPSD  :0.600  SDPDVR : 3.50  SDFDUR :15.00  PODDUR :10.00  XFRUIT  :  1.00    
 THRESH : 78.0  SDPRO  :0.235  SDLIP   : 0.030                                  


*SIMULATED CROP AND SOIL STATUS AT MAIN DEVELOPMENT STAGES

 RUN NO.     1     SIM                     

        CROP GROWTH     BIOMASS         LEAF   CROP N     STRESS      STRESS                                           
   DATE  AGE STAGE        kg/ha    LAI   NUM  kg/ha  %   H2O  Nitr Phos1 Phos2  RSTG                                   
 ------  --- ----------   -----  -----  ----  ---  ---  ----  ----  ----  ----  ----                                   
  1 APR    0 Start Sim        0   0.00   0.0    0  0.0  0.00  0.00  0.00  0.00     0
 15 APR    0 Sowing           0   0.00   0.0    0  0.0  0.00  0.00  0.00  0.00     0
 20 APR    5 Emergence       44   0.08   0.2    1  3.4  0.00  0.00  0.00  0.00     0
 20 APR    5 End Juven.      44   0.08   0.2    1  3.4  0.00  0.00  0.00  0.00     0
 23 APR    8 Unifoliate      49   0.09   1.1    2  3.3  0.00  0.64  0.00  0.00     0
 25 APR   10 Flower Ind      56   0.10   1.7    2  3.2  0.00  0.41  0.00  0.00     0
 18 MAY   33 First Flwr    1208   2.95   8.5   38  3.1  0.00  0.01  0.00  0.00     1
 20 MAY   35 First Pod     1471   3.33   9.1   45  3.1  0.00  0.00  0.00  0.00     3
 27 MAY   42 First Seed    2515   4.02  11.3   73  2.9  0.00  0.00  0.00  0.00     5
 29 MAY   44 End Msnode    2830   4.03  11.9   82  2.9  0.00  0.00  0.00  0.00     5
  3 JUN   49 End Pod       3529   3.75  11.9  101  2.9  0.00  0.00  0.00  0.00     5
  6 JUN   52 End Leaf      3948   3.46  11.9  111  2.8  0.00  0.00  0.00  0.00     5
  9 JUN   55 Phys. Mat     4356   3.14  11.9  120  2.7  0.00  0.00  0.00  0.00     7
 18 JUN   64 Harv. Mat     3954   0.22  11.9  107  2.7  0.00  0.00  0.00  0.00     8
 18 JUN   64 Harvest       3954   0.22  11.9  107  2.7  0.00  0.00  0.00  0.00     8


*MAIN GROWTH AND DEVELOPMENT VARIABLES

@     VARIABLE                                         SIMULATED     MEASURED
      --------                                         ---------     --------
      Anthesis day (dap)                                      33          -99
      First pod day (dap)                                     35          -99
      First seed day (dap)                                    42          -99
      Physiological maturity day (dap)                        55          -99
      Yield at harvest maturity (kg [dm]/ha)                1982          -99
      Pod/Ear/Panicle weight at maturity (kg [dm]/ha)       2943          -99
      Number at maturity (no/m2)                             614          -99
      Unit wt at maturity (g [dm]/unit)                   0.3228          -99
      Number at maturity (no/unit)                          3.50          -99
      Tops weight at maturity (kg [dm]/ha)                  3954          -99
      By-product produced (stalk) at maturity (kg[dm]/ha    1970          -99
      Leaf area index, maximum                              4.04          -99
      Harvest index at maturity                            0.501          -99
      Threshing % at maturity                              67.35          -99
      Grain N at maturity (kg/ha)                             75          -99
      Tops N at maturity (kg/ha)                             107          -99
      Stem N at maturity (kg/ha)                              11          -99
      Grain N at maturity (%)                               3.77          -99
      Tops weight at anthesis (kg [dm]/ha)                  1208          -99
      Tops N at anthesis (kg/ha)                              38          -99
      Leaf number per stem at maturity                     11.87          -99
      Grain oil at maturity (%)                             2.88          -99
      Canopy height (m)                                     1.06          -99
      Harvest maturity day (dap)                              64          -99
      Emergence day (dap)                                      5          -99


*ENVIRONMENTAL AND STRESS FACTORS

 |-----Development Phase------|--------------------------------------Environment--------------------------------------|-----------------Stress-----------------|
                              |---------------Average--------------|-----Cumulative-----|--------Count of days--------|          (0=Min, 1=Max Stress)         |
                         Time  Temp  Temp  Temp Solar Photop                Evapo    Pot TMIN TMIN TMAX TMAX TMAX RAIN|----Water----|---Nitrogen--|-Phosphorus-|
                         Span   Max   Min  Mean   Rad  [day]    CO2   Rain  Trans     ET   <    <    >    >    >    >   Photo         Photo         Photo
                         days    øC    øC    øC MJ/m2     hr    ppm     mm     mm     mm  0øC  2øC 30øC 32øC 34øC  0mm  synth Growth  synth Growth  synth Growth
----------------------------------------------------------------------------------------------------------------------------------------------------------------
 Emergence -First Flower   28  29.7  19.4  24.6  18.6  12.14  338.4   57.3    0.0    0.0    0    0   14    2    0   14  0.000  0.000  0.000  0.106  0.000  0.000
 First Flower-First Seed    9  30.1  19.6  24.8  18.3  12.18  338.5   31.8    0.0    0.0    0    0    4    0    0    2  0.000  0.000  0.000  0.000  0.000  0.000
 First Seed - Phys. Mat.   13  29.1  19.4  24.2  17.4  12.19  338.5   12.1    0.0    0.0    0    0    5    0    0    7  0.000  0.000  0.000  0.000  0.000  0.000
 Emergence  - Phys. Mat.   50  29.6  19.5  24.5  18.2  12.16  338.4  101.2    0.0    0.0    0    0   23    2    0   23  0.000  0.000  0.000  0.059  0.000  0.000


 Planting to Harvest       78  29.6  19.3  24.5  18.5  12.14  338.4  209.4    0.0    0.0    0    0   39    2    0   29  0.000  0.000  0.000  0.038  0.000  0.000
----------------------------------------------------------------------------------------------------------------------------------------------------------------

--------------------------------------------------------------------------------------------------------------

                  Dry bean YIELD :     1982 kg/ha    [Dry weight] 

**************************************************************************************************************

*DSSAT Cropping System Model Ver. 4.6.1.000 -release      JUL 11, 2017; 16:24:56
                                                                                
*RUN   2        : SIM                       CRGRO046 9\000009    1              
 MODEL          : CRGRO046 - Dry bean                                           
 EXPERIMENT     : 9\000009 BN PALMIRA_ANALISIS SENSIBILIDAD                     
 DATA PATH      : D:\B\0\00000                                                  
 TREATMENT  1   : SIM                       CRGRO046                            
                                                                                
                                                                                
 CROP           : Dry bean         CULTIVAR : Jatu Rong        ECOTYPE :ANDIND  
 STARTING DATE  : APR  2 1981                                                   
 PLANTING DATE  : APR 16 1981        PLANTS/m2 : 26.6     ROW SPACING :  60.cm  
 WEATHER        : PALM8034                                                      
 SOIL           : CCPA000030     TEXTURE : C     -   Silty Clay Loam            
 WATER BALANCE  : NOT SIMULATED ; NO H2O-STRESS                                 
 IRRIGATION     :                                                               
 NITROGEN BAL.  : NOT SIMULATED ; NO N-STRESS                                   
 N-FERTILIZER   :                                                               
 RESIDUE/MANURE :                                                               
 ENVIRONM. OPT. : DAYL=    0.00  SRAD=    0.00  TMAX=    0.00  TMIN=    0.00    
                  RAIN=    0.00  CO2 =    0.00  DEW =    0.00  WIND=    0.00    
 SIMULATION OPT : WATER   :N  NITROGEN:N  N-FIX:N  PHOSPH :N  PESTS  :N         
                  PHOTO   :L  ET      :R  INFIL:S  HYDROL :R  SOM    :G         
                  CO2 340ppm  NSWIT   :1  EVAP :S  SOIL   :2  STEMP  :D         
 MANAGEMENT OPT : PLANTING:A  IRRIG   :A  FERT :D  RESIDUE:N  HARVEST:M         
                  WEATHER :M  TILLAGE :N                                        
                                                                                
*SUMMARY OF SOIL AND GENETIC INPUT PARAMETERS                                   
                                                                                
 Dry bean   CULTIVAR :000009-Jatu Rong          ECOTYPE :ANDIND                 
 CSDVAR :12.17  PPSEN  : 0.05  EMG-FLW:26.00  FLW-FSD: 9.00  FSD-PHM : 11.00    
 WTPSD  :0.600  SDPDVR : 3.50  SDFDUR :15.00  PODDUR :10.00  XFRUIT  :  1.00    
 THRESH : 78.0  SDPRO  :0.235  SDLIP   : 0.030                                  


*SIMULATED CROP AND SOIL STATUS AT MAIN DEVELOPMENT STAGES

 RUN NO.     2     SIM                     

        CROP GROWTH     BIOMASS         LEAF   CROP N     STRESS      STRESS                                           
   DATE  AGE STAGE        kg/ha    LAI   NUM  kg/ha  %   H2O  Nitr Phos1 Phos2  RSTG                                   
 ------  --- ----------   -----  -----  ----  ---  ---  ----  ----  ----  ----  ----                                   
  2 APR    0 Start Sim        0   0.00   0.0    0  0.0  0.00  0.00  0.00  0.00     0
 16 APR    0 Sowing           0   0.00   0.0    0  0.0  0.00  0.00  0.00  0.00     0
 21 APR    5 Emergence       44   0.08   0.2    1  3.4  0.00  0.00  0.00  0.00     0
 21 APR    5 End Juven.      44   0.08   0.2    1  3.4  0.00  0.00  0.00  0.00     0
 24 APR    8 Unifoliate      48   0.09   1.1    2  3.3  0.00  0.66  0.00  0.00     0
 26 APR   10 Flower Ind      54   0.10   1.7    2  3.2  0.00  0.47  0.00  0.00     0
 19 MAY   33 First Flwr    1109   2.76   8.2   35  3.2  0.00  0.01  0.00  0.00     1
 22 MAY   36 First Pod     1492   3.37   9.1   46  3.1  0.00  0.00  0.00  0.00     3
 29 MAY   43 First Seed    2516   3.98  11.2   74  2.9  0.00  0.00  0.00  0.00     5
 31 MAY   45 End Msnode    2832   3.98  11.7   82  2.9  0.00  0.00  0.00  0.00     5
  5 JUN   50 End Pod       3556   3.68  11.7  102  2.9  0.00  0.00  0.00  0.00     5
  8 JUN   53 End Leaf      3951   3.40  11.7  111  2.8  0.00  0.00  0.00  0.00     5
 11 JUN   56 Phys. Mat     4333   3.10  11.7  120  2.8  0.00  0.00  0.00  0.00     7
 20 JUN   65 Harv. Mat     3955   0.21  11.7  109  2.8  0.00  0.00  0.00  0.00     8
 20 JUN   65 Harvest       3955   0.21  11.7  109  2.8  0.00  0.00  0.00  0.00     8


*MAIN GROWTH AND DEVELOPMENT VARIABLES

@     VARIABLE                                         SIMULATED     MEASURED
      --------                                         ---------     --------
      Anthesis day (dap)                                      33          -99
      First pod day (dap)                                     36          -99
      First seed day (dap)                                    43          -99
      Physiological maturity day (dap)                        56          -99
      Yield at harvest maturity (kg [dm]/ha)                2128          -99
      Pod/Ear/Panicle weight at maturity (kg [dm]/ha)       3011          -99
      Number at maturity (no/m2)                             579          -99
      Unit wt at maturity (g [dm]/unit)                   0.3676          -99
      Number at maturity (no/unit)                          3.50          -99
      Tops weight at maturity (kg [dm]/ha)                  3955          -99
      By-product produced (stalk) at maturity (kg[dm]/ha    1830          -99
      Leaf area index, maximum                              3.99          -99
      Harvest index at maturity                            0.538          -99
      Threshing % at maturity                              70.67          -99
      Grain N at maturity (kg/ha)                             80          -99
      Tops N at maturity (kg/ha)                             109          -99
      Stem N at maturity (kg/ha)                              10          -99
      Grain N at maturity (%)                               3.76          -99
      Tops weight at anthesis (kg [dm]/ha)                  1109          -99
      Tops N at anthesis (kg/ha)                              35          -99
      Leaf number per stem at maturity                     11.74          -99
      Grain oil at maturity (%)                             2.89          -99
      Canopy height (m)                                     1.03          -99
      Harvest maturity day (dap)                              65          -99
      Emergence day (dap)                                      5          -99


*ENVIRONMENTAL AND STRESS FACTORS

 |-----Development Phase------|--------------------------------------Environment--------------------------------------|-----------------Stress-----------------|
                              |---------------Average--------------|-----Cumulative-----|--------Count of days--------|          (0=Min, 1=Max Stress)         |
                         Time  Temp  Temp  Temp Solar Photop                Evapo    Pot TMIN TMIN TMAX TMAX TMAX RAIN|----Water----|---Nitrogen--|-Phosphorus-|
                         Span   Max   Min  Mean   Rad  [day]    CO2   Rain  Trans     ET   <    <    >    >    >    >   Photo         Photo         Photo
                         days    øC    øC    øC MJ/m2     hr    ppm     mm     mm     mm  0øC  2øC 30øC 32øC 34øC  0mm  synth Growth  synth Growth  synth Growth
----------------------------------------------------------------------------------------------------------------------------------------------------------------
 Emergence -First Flower   28  28.2  19.0  23.6  17.6  12.14  339.7  113.0    0.0    0.0    0    0    2    0    0   19  0.000  0.000  0.000  0.114  0.000  0.000
 First Flower-First Seed   10  28.9  19.2  24.0  17.6  12.18  339.8   96.1    0.0    0.0    0    0    3    0    0    8  0.000  0.000  0.000  0.000  0.000  0.000
 First Seed - Phys. Mat.   13  28.5  19.3  23.9  16.9  12.20  339.8   13.7    0.0    0.0    0    0    3    0    0    4  0.000  0.000  0.000  0.000  0.000  0.000
 Emergence  - Phys. Mat.   51  28.4  19.1  23.7  17.4  12.16  339.8  222.8    0.0    0.0    0    0    8    0    0   31  0.000  0.000  0.000  0.063  0.000  0.000


 Planting to Harvest       79  28.6  19.2  23.9  17.6  12.14  339.8  405.4    0.0    0.0    0    0   15    0    0   47  0.000  0.000  0.000  0.040  0.000  0.000
----------------------------------------------------------------------------------------------------------------------------------------------------------------

--------------------------------------------------------------------------------------------------------------

                  Dry bean YIELD :     2128 kg/ha    [Dry weight] 

**************************************************************************************************************

*DSSAT Cropping System Model Ver. 4.6.1.000 -release      JUL 11, 2017; 16:24:56
                                                                                
*RUN   3        : SIM                       CRGRO046 9\000009    1              
 MODEL          : CRGRO046 - Dry bean                                           
 EXPERIMENT     : 9\000009 BN PALMIRA_ANALISIS SENSIBILIDAD                     
 DATA PATH      : D:\B\0\00000                                                  
 TREATMENT  1   : SIM                       CRGRO046                            
                                                                                
                                                                                
 CROP           : Dry bean         CULTIVAR : Jatu Rong        ECOTYPE :ANDIND  
 STARTING DATE  : APR  2 1982                                                   
 PLANTING DATE  : APR 16 1982        PLANTS/m2 : 26.6     ROW SPACING :  60.cm  
 WEATHER        : PALM8034                                                      
 SOIL           : CCPA000030     TEXTURE : C     -   Silty Clay Loam            
 WATER BALANCE  : NOT SIMULATED ; NO H2O-STRESS                                 
 IRRIGATION     :                                                               
 NITROGEN BAL.  : NOT SIMULATED ; NO N-STRESS                                   
 N-FERTILIZER   :                                                               
 RESIDUE/MANURE :                                                               
 ENVIRONM. OPT. : DAYL=    0.00  SRAD=    0.00  TMAX=    0.00  TMIN=    0.00    
                  RAIN=    0.00  CO2 =    0.00  DEW =    0.00  WIND=    0.00    
 SIMULATION OPT : WATER   :N  NITROGEN:N  N-FIX:N  PHOSPH :N  PESTS  :N         
                  PHOTO   :L  ET      :R  INFIL:S  HYDROL :R  SOM    :G         
                  CO2 341ppm  NSWIT   :1  EVAP :S  SOIL   :2  STEMP  :D         
 MANAGEMENT OPT : PLANTING:A  IRRIG   :A  FERT :D  RESIDUE:N  HARVEST:M         
                  WEATHER :M  TILLAGE :N                                        
                                                                                
*SUMMARY OF SOIL AND GENETIC INPUT PARAMETERS                                   
                                                                                
 Dry bean   CULTIVAR :000009-Jatu Rong          ECOTYPE :ANDIND                 
 CSDVAR :12.17  PPSEN  : 0.05  EMG-FLW:26.00  FLW-FSD: 9.00  FSD-PHM : 11.00    
 WTPSD  :0.600  SDPDVR : 3.50  SDFDUR :15.00  PODDUR :10.00  XFRUIT  :  1.00    
 THRESH : 78.0  SDPRO  :0.235  SDLIP   : 0.030                                  


*SIMULATED CROP AND SOIL STATUS AT MAIN DEVELOPMENT STAGES

 RUN NO.     3     SIM                     

        CROP GROWTH     BIOMASS         LEAF   CROP N     STRESS      STRESS                                           
   DATE  AGE STAGE        kg/ha    LAI   NUM  kg/ha  %   H2O  Nitr Phos1 Phos2  RSTG                                   
 ------  --- ----------   -----  -----  ----  ---  ---  ----  ----  ----  ----  ----                                   
  2 APR    0 Start Sim        0   0.00   0.0    0  0.0  0.00  0.00  0.00  0.00     0
 16 APR    0 Sowing           0   0.00   0.0    0  0.0  0.00  0.00  0.00  0.00     0
 21 APR    5 Emergence       44   0.08   0.2    1  3.4  0.00  0.00  0.00  0.00     0
 21 APR    5 End Juven.      44   0.08   0.2    1  3.4  0.00  0.00  0.00  0.00     0
 24 APR    8 Unifoliate      49   0.09   1.1    2  3.3  0.00  0.65  0.00  0.00     0
 26 APR   10 Flower Ind      55   0.10   1.7    2  3.2  0.00  0.44  0.00  0.00     0
 19 MAY   33 First Flwr    1182   2.87   8.5   37  3.1  0.00  0.01  0.00  0.00     1
 22 MAY   36 First Pod     1542   3.46   9.3   47  3.1  0.00  0.00  0.00  0.00     3
 29 MAY   43 First Seed    2560   4.02  11.3   74  2.9  0.00  0.00  0.00  0.00     5
 31 MAY   45 End Msnode    2878   4.02  11.9   83  2.9  0.00  0.00  0.00  0.00     5
  4 JUN   49 End Pod       3445   3.78  11.9   98  2.8  0.00  0.00  0.00  0.00     5
  7 JUN   52 End Leaf      3868   3.50  11.9  108  2.8  0.00  0.00  0.00  0.00     5
 10 JUN   55 Phys. Mat     4280   3.18  11.9  118  2.8  0.00  0.00  0.00  0.00     7
 19 JUN   64 Harv. Mat     3927   0.22  11.9  108  2.8  0.00  0.00  0.00  0.00     8
 19 JUN   64 Harvest       3927   0.22  11.9  108  2.8  0.00  0.00  0.00  0.00     8


*MAIN GROWTH AND DEVELOPMENT VARIABLES

@     VARIABLE                                         SIMULATED     MEASURED
      --------                                         ---------     --------
      Anthesis day (dap)                                      33          -99
      First pod day (dap)                                     36          -99
      First seed day (dap)                                    43          -99
      Physiological maturity day (dap)                        55          -99
      Yield at harvest maturity (kg [dm]/ha)                2042          -99
      Pod/Ear/Panicle weight at maturity (kg [dm]/ha)       2917          -99
      Number at maturity (no/m2)                             550          -99
      Unit wt at maturity (g [dm]/unit)                   0.3710          -99
      Number at maturity (no/unit)                          3.50          -99
      Tops weight at maturity (kg [dm]/ha)                  3927          -99
      By-product produced (stalk) at maturity (kg[dm]/ha    1880          -99
      Leaf area index, maximum                              4.03          -99
      Harvest index at maturity                            0.520          -99
      Threshing % at maturity                              70.01          -99
      Grain N at maturity (kg/ha)                             78          -99
      Tops N at maturity (kg/ha)                             108          -99
      Stem N at maturity (kg/ha)                              11          -99
      Grain N at maturity (%)                               3.80          -99
      Tops weight at anthesis (kg [dm]/ha)                  1182          -99
      Tops N at anthesis (kg/ha)                              37          -99
      Leaf number per stem at maturity                     11.93          -99
      Grain oil at maturity (%)                             2.87          -99
      Canopy height (m)                                     1.06          -99
      Harvest maturity day (dap)                              64          -99
      Emergence day (dap)                                      5          -99


*ENVIRONMENTAL AND STRESS FACTORS

 |-----Development Phase------|--------------------------------------Environment--------------------------------------|-----------------Stress-----------------|
                              |---------------Average--------------|-----Cumulative-----|--------Count of days--------|          (0=Min, 1=Max Stress)         |
                         Time  Temp  Temp  Temp Solar Photop                Evapo    Pot TMIN TMIN TMAX TMAX TMAX RAIN|----Water----|---Nitrogen--|-Phosphorus-|
                         Span   Max   Min  Mean   Rad  [day]    CO2   Rain  Trans     ET   <    <    >    >    >    >   Photo         Photo         Photo
                         days    øC    øC    øC MJ/m2     hr    ppm     mm     mm     mm  0øC  2øC 30øC 32øC 34øC  0mm  synth Growth  synth Growth  synth Growth
----------------------------------------------------------------------------------------------------------------------------------------------------------------
 Emergence -First Flower   28  29.5  19.4  24.4  18.4  12.14  340.9   73.7    0.0    0.0    0    0   11    2    0   10  0.000  0.000  0.000  0.108  0.000  0.000
 First Flower-First Seed   10  27.2  19.0  23.1  16.2  12.18  341.0   48.5    0.0    0.0    0    0    0    0    0    6  0.000  0.000  0.000  0.000  0.000  0.000
 First Seed - Phys. Mat.   12  29.6  19.9  24.8  17.4  12.19  341.0    4.9    0.0    0.0    0    0    3    0    0    1  0.000  0.000  0.000  0.000  0.000  0.000
 Emergence  - Phys. Mat.   50  29.0  19.4  24.2  17.8  12.16  340.9  127.1    0.0    0.0    0    0   14    2    0   17  0.000  0.000  0.000  0.060  0.000  0.000


 Planting to Harvest       78  29.1  19.3  24.2  18.0  12.14  340.9  260.9    0.0    0.0    0    0   23    3    0   29  0.000  0.000  0.000  0.039  0.000  0.000
----------------------------------------------------------------------------------------------------------------------------------------------------------------

--------------------------------------------------------------------------------------------------------------

                  Dry bean YIELD :     2042 kg/ha    [Dry weight] 

**************************************************************************************************************

*DSSAT Cropping System Model Ver. 4.6.1.000 -release      JUL 11, 2017; 16:24:56
                                                                                
*RUN   4        : SIM                       CRGRO046 9\000009    1              
 MODEL          : CRGRO046 - Dry bean                                           
 EXPERIMENT     : 9\000009 BN PALMIRA_ANALISIS SENSIBILIDAD                     
 DATA PATH      : D:\B\0\00000                                                  
 TREATMENT  1   : SIM                       CRGRO046                            
                                                                                
                                                                                
 CROP           : Dry bean         CULTIVAR : Jatu Rong        ECOTYPE :ANDIND  
 STARTING DATE  : APR  2 1983                                                   
 PLANTING DATE  : APR 16 1983        PLANTS/m2 : 26.6     ROW SPACING :  60.cm  
 WEATHER        : PALM8034                                                      
 SOIL           : CCPA000030     TEXTURE : C     -   Silty Clay Loam            
 WATER BALANCE  : NOT SIMULATED ; NO H2O-STRESS                                 
 IRRIGATION     :                                                               
 NITROGEN BAL.  : NOT SIMULATED ; NO N-STRESS                                   
 N-FERTILIZER   :                                                               
 RESIDUE/MANURE :                                                               
 ENVIRONM. OPT. : DAYL=    0.00  SRAD=    0.00  TMAX=    0.00  TMIN=    0.00    
                  RAIN=    0.00  CO2 =    0.00  DEW =    0.00  WIND=    0.00    
 SIMULATION OPT : WATER   :N  NITROGEN:N  N-FIX:N  PHOSPH :N  PESTS  :N         
                  PHOTO   :L  ET      :R  INFIL:S  HYDROL :R  SOM    :G         
                  CO2 342ppm  NSWIT   :1  EVAP :S  SOIL   :2  STEMP  :D         
 MANAGEMENT OPT : PLANTING:A  IRRIG   :A  FERT :D  RESIDUE:N  HARVEST:M         
                  WEATHER :M  TILLAGE :N                                        
                                                                                
*SUMMARY OF SOIL AND GENETIC INPUT PARAMETERS                                   
                                                                                
 Dry bean   CULTIVAR :000009-Jatu Rong          ECOTYPE :ANDIND                 
 CSDVAR :12.17  PPSEN  : 0.05  EMG-FLW:26.00  FLW-FSD: 9.00  FSD-PHM : 11.00    
 WTPSD  :0.600  SDPDVR : 3.50  SDFDUR :15.00  PODDUR :10.00  XFRUIT  :  1.00    
 THRESH : 78.0  SDPRO  :0.235  SDLIP   : 0.030                                  


*SIMULATED CROP AND SOIL STATUS AT MAIN DEVELOPMENT STAGES

 RUN NO.     4     SIM                     

        CROP GROWTH     BIOMASS         LEAF   CROP N     STRESS      STRESS                                           
   DATE  AGE STAGE        kg/ha    LAI   NUM  kg/ha  %   H2O  Nitr Phos1 Phos2  RSTG                                   
 ------  --- ----------   -----  -----  ----  ---  ---  ----  ----  ----  ----  ----                                   
  2 APR    0 Start Sim        0   0.00   0.0    0  0.0  0.00  0.00  0.00  0.00     0
 16 APR    0 Sowing           0   0.00   0.0    0  0.0  0.00  0.00  0.00  0.00     0
 21 APR    5 Emergence       44   0.08   0.2    1  3.4  0.00  0.00  0.00  0.00     0
 21 APR    5 End Juven.      44   0.08   0.2    1  3.4  0.00  0.00  0.00  0.00     0
 24 APR    8 Unifoliate      48   0.09   1.1    2  3.3  0.00  0.66  0.00  0.00     0
 26 APR   10 Flower Ind      55   0.10   1.7    2  3.2  0.00  0.43  0.00  0.00     0
 18 MAY   32 First Flwr    1106   2.74   8.3   35  3.2  0.00  0.01  0.00  0.00     1
 21 MAY   35 First Pod     1482   3.37   9.2   46  3.1  0.00  0.00  0.00  0.00     3
 28 MAY   42 First Seed    2541   3.99  11.3   75  2.9  0.00  0.00  0.00  0.00     5
 30 MAY   44 End Msnode    2853   3.99  11.9   83  2.9  0.00  0.00  0.00  0.00     5
  4 JUN   49 End Pod       3572   3.68  11.9  103  2.9  0.00  0.00  0.00  0.00     5
  7 JUN   52 End Leaf      4000   3.40  11.9  113  2.8  0.00  0.00  0.00  0.00     5
 10 JUN   55 Phys. Mat     4404   3.10  11.9  122  2.8  0.00  0.00  0.00  0.00     7
 19 JUN   64 Harv. Mat     4056   0.21  11.9  113  2.8  0.00  0.00  0.00  0.00     8
 19 JUN   64 Harvest       4056   0.21  11.9  113  2.8  0.00  0.00  0.00  0.00     8


*MAIN GROWTH AND DEVELOPMENT VARIABLES

@     VARIABLE                                         SIMULATED     MEASURED
      --------                                         ---------     --------
      Anthesis day (dap)                                      32          -99
      First pod day (dap)                                     35          -99
      First seed day (dap)                                    42          -99
      Physiological maturity day (dap)                        55          -99
      Yield at harvest maturity (kg [dm]/ha)                2200          -99
      Pod/Ear/Panicle weight at maturity (kg [dm]/ha)       3086          -99
      Number at maturity (no/m2)                             562          -99
      Unit wt at maturity (g [dm]/unit)                   0.3914          -99
      Number at maturity (no/unit)                          3.50          -99
      Tops weight at maturity (kg [dm]/ha)                  4056          -99
      By-product produced (stalk) at maturity (kg[dm]/ha    1860          -99
      Leaf area index, maximum                              4.00          -99
      Harvest index at maturity                            0.543          -99
      Threshing % at maturity                              71.30          -99
      Grain N at maturity (kg/ha)                             83          -99
      Tops N at maturity (kg/ha)                             113          -99
      Stem N at maturity (kg/ha)                              11          -99
      Grain N at maturity (%)                               3.78          -99
      Tops weight at anthesis (kg [dm]/ha)                  1106          -99
      Tops N at anthesis (kg/ha)                              35          -99
      Leaf number per stem at maturity                     11.90          -99
      Grain oil at maturity (%)                             2.87          -99
      Canopy height (m)                                     1.05          -99
      Harvest maturity day (dap)                              64          -99
      Emergence day (dap)                                      5          -99


*ENVIRONMENTAL AND STRESS FACTORS

 |-----Development Phase------|--------------------------------------Environment--------------------------------------|-----------------Stress-----------------|
                              |---------------Average--------------|-----Cumulative-----|--------Count of days--------|          (0=Min, 1=Max Stress)         |
                         Time  Temp  Temp  Temp Solar Photop                Evapo    Pot TMIN TMIN TMAX TMAX TMAX RAIN|----Water----|---Nitrogen--|-Phosphorus-|
                         Span   Max   Min  Mean   Rad  [day]    CO2   Rain  Trans     ET   <    <    >    >    >    >   Photo         Photo         Photo
                         days    øC    øC    øC MJ/m2     hr    ppm     mm     mm     mm  0øC  2øC 30øC 32øC 34øC  0mm  synth Growth  synth Growth  synth Growth
----------------------------------------------------------------------------------------------------------------------------------------------------------------
 Emergence -First Flower   27  29.7  19.8  24.7  18.3  12.13  342.3   85.0    0.0    0.0    0    0   12    0    0   11  0.000  0.000  0.000  0.113  0.000  0.000
 First Flower-First Seed   10  29.7  19.4  24.5  18.2  12.18  342.5   28.8    0.0    0.0    0    0    4    0    0    5  0.000  0.000  0.000  0.000  0.000  0.000
 First Seed - Phys. Mat.   13  29.1  19.4  24.3  17.5  12.19  342.5   13.8    0.0    0.0    0    0    4    0    0    3  0.000  0.000  0.000  0.000  0.000  0.000
 Emergence  - Phys. Mat.   50  29.5  19.6  24.6  18.1  12.16  342.4  127.6    0.0    0.0    0    0   20    0    0   19  0.000  0.000  0.000  0.061  0.000  0.000


 Planting to Harvest       78  29.6  19.6  24.6  18.2  12.14  342.4  227.8    0.0    0.0    0    0   31    0    0   36  0.000  0.000  0.000  0.039  0.000  0.000
----------------------------------------------------------------------------------------------------------------------------------------------------------------

--------------------------------------------------------------------------------------------------------------

                  Dry bean YIELD :     2200 kg/ha    [Dry weight] 

**************************************************************************************************************

*DSSAT Cropping System Model Ver. 4.6.1.000 -release      JUL 11, 2017; 16:24:56
                                                                                
*RUN   5        : SIM                       CRGRO046 9\000009    1              
 MODEL          : CRGRO046 - Dry bean                                           
 EXPERIMENT     : 9\000009 BN PALMIRA_ANALISIS SENSIBILIDAD                     
 DATA PATH      : D:\B\0\00000                                                  
 TREATMENT  1   : SIM                       CRGRO046                            
                                                                                
                                                                                
 CROP           : Dry bean         CULTIVAR : Jatu Rong        ECOTYPE :ANDIND  
 STARTING DATE  : APR  1 1984                                                   
 PLANTING DATE  : APR 15 1984        PLANTS/m2 : 26.6     ROW SPACING :  60.cm  
 WEATHER        : PALM8034                                                      
 SOIL           : CCPA000030     TEXTURE : C     -   Silty Clay Loam            
 WATER BALANCE  : NOT SIMULATED ; NO H2O-STRESS                                 
 IRRIGATION     :                                                               
 NITROGEN BAL.  : NOT SIMULATED ; NO N-STRESS                                   
 N-FERTILIZER   :                                                               
 RESIDUE/MANURE :                                                               
 ENVIRONM. OPT. : DAYL=    0.00  SRAD=    0.00  TMAX=    0.00  TMIN=    0.00    
                  RAIN=    0.00  CO2 =    0.00  DEW =    0.00  WIND=    0.00    
 SIMULATION OPT : WATER   :N  NITROGEN:N  N-FIX:N  PHOSPH :N  PESTS  :N         
                  PHOTO   :L  ET      :R  INFIL:S  HYDROL :R  SOM    :G         
                  CO2 344ppm  NSWIT   :1  EVAP :S  SOIL   :2  STEMP  :D         
 MANAGEMENT OPT : PLANTING:A  IRRIG   :A  FERT :D  RESIDUE:N  HARVEST:M         
                  WEATHER :M  TILLAGE :N                                        
                                                                                
*SUMMARY OF SOIL AND GENETIC INPUT PARAMETERS                                   
                                                                                
 Dry bean   CULTIVAR :000009-Jatu Rong          ECOTYPE :ANDIND                 
 CSDVAR :12.17  PPSEN  : 0.05  EMG-FLW:26.00  FLW-FSD: 9.00  FSD-PHM : 11.00    
 WTPSD  :0.600  SDPDVR : 3.50  SDFDUR :15.00  PODDUR :10.00  XFRUIT  :  1.00    
 THRESH : 78.0  SDPRO  :0.235  SDLIP   : 0.030                                  


*SIMULATED CROP AND SOIL STATUS AT MAIN DEVELOPMENT STAGES

 RUN NO.     5     SIM                     

        CROP GROWTH     BIOMASS         LEAF   CROP N     STRESS      STRESS                                           
   DATE  AGE STAGE        kg/ha    LAI   NUM  kg/ha  %   H2O  Nitr Phos1 Phos2  RSTG                                   
 ------  --- ----------   -----  -----  ----  ---  ---  ----  ----  ----  ----  ----                                   
  1 APR    0 Start Sim        0   0.00   0.0    0  0.0  0.00  0.00  0.00  0.00     0
 15 APR    0 Sowing           0   0.00   0.0    0  0.0  0.00  0.00  0.00  0.00     0
 20 APR    5 Emergence       44   0.08   0.2    1  3.4  0.00  0.00  0.00  0.00     0
 20 APR    5 End Juven.      44   0.08   0.2    1  3.4  0.00  0.00  0.00  0.00     0
 23 APR    8 Unifoliate      49   0.09   1.1    2  3.3  0.00  0.64  0.00  0.00     0
 25 APR   10 Flower Ind      55   0.10   1.7    2  3.2  0.00  0.45  0.00  0.00     0
 18 MAY   33 First Flwr    1168   2.83   8.3   37  3.2  0.00  0.01  0.00  0.00     1
 21 MAY   36 First Pod     1545   3.45   9.2   48  3.1  0.00  0.00  0.00  0.00     3
 28 MAY   43 First Seed    2561   4.09  11.1   75  2.9  0.00  0.00  0.00  0.00     5
 30 MAY   45 End Msnode    2893   4.10  11.7   84  2.9  0.00  0.00  0.00  0.00     5
  4 JUN   50 End Pod       3626   3.80  11.7  104  2.9  0.00  0.00  0.00  0.00     5
  7 JUN   53 End Leaf      4042   3.53  11.7  114  2.8  0.00  0.00  0.00  0.00     5
 10 JUN   56 Phys. Mat     4461   3.23  11.7  123  2.8  0.00  0.00  0.00  0.00     7
 19 JUN   65 Harv. Mat     4100   0.22  11.7  113  2.8  0.00  0.00  0.00  0.00     8
 19 JUN   65 Harvest       4100   0.22  11.7  113  2.8  0.00  0.00  0.00  0.00     8


*MAIN GROWTH AND DEVELOPMENT VARIABLES

@     VARIABLE                                         SIMULATED     MEASURED
      --------                                         ---------     --------
      Anthesis day (dap)                                      33          -99
      First pod day (dap)                                     36          -99
      First seed day (dap)                                    43          -99
      Physiological maturity day (dap)                        56          -99
      Yield at harvest maturity (kg [dm]/ha)                2167          -99
      Pod/Ear/Panicle weight at maturity (kg [dm]/ha)       3115          -99
      Number at maturity (no/m2)                             601          -99
      Unit wt at maturity (g [dm]/unit)                   0.3604          -99
      Number at maturity (no/unit)                          3.50          -99
      Tops weight at maturity (kg [dm]/ha)                  4100          -99
      By-product produced (stalk) at maturity (kg[dm]/ha    1930          -99
      Leaf area index, maximum                              4.10          -99
      Harvest index at maturity                            0.529          -99
      Threshing % at maturity                              69.58          -99
      Grain N at maturity (kg/ha)                             81          -99
      Tops N at maturity (kg/ha)                             113          -99
      Stem N at maturity (kg/ha)                              11          -99
      Grain N at maturity (%)                               3.74          -99
      Tops weight at anthesis (kg [dm]/ha)                  1168          -99
      Tops N at anthesis (kg/ha)                              37          -99
      Leaf number per stem at maturity                     11.73          -99
      Grain oil at maturity (%)                             2.88          -99
      Canopy height (m)                                     1.03          -99
      Harvest maturity day (dap)                              65          -99
      Emergence day (dap)                                      5          -99


*ENVIRONMENTAL AND STRESS FACTORS

 |-----Development Phase------|--------------------------------------Environment--------------------------------------|-----------------Stress-----------------|
                              |---------------Average--------------|-----Cumulative-----|--------Count of days--------|          (0=Min, 1=Max Stress)         |
                         Time  Temp  Temp  Temp Solar Photop                Evapo    Pot TMIN TMIN TMAX TMAX TMAX RAIN|----Water----|---Nitrogen--|-Phosphorus-|
                         Span   Max   Min  Mean   Rad  [day]    CO2   Rain  Trans     ET   <    <    >    >    >    >   Photo         Photo         Photo
                         days    øC    øC    øC MJ/m2     hr    ppm     mm     mm     mm  0øC  2øC 30øC 32øC 34øC  0mm  synth Growth  synth Growth  synth Growth
----------------------------------------------------------------------------------------------------------------------------------------------------------------
 Emergence -First Flower   28  28.5  18.8  23.7  18.1  12.14  344.2   75.5    0.0    0.0    0    0    3    0    0   14  0.000  0.000  0.000  0.107  0.000  0.000
 First Flower-First Seed   10  27.3  18.8  23.1  16.5  12.18  344.3   33.0    0.0    0.0    0    0    0    0    0    7  0.000  0.000  0.000  0.000  0.000  0.000
 First Seed - Phys. Mat.   13  28.4  18.7  23.5  17.4  12.20  344.3   29.8    0.0    0.0    0    0    3    0    0    7  0.000  0.000  0.000  0.000  0.000  0.000
 Emergence  - Phys. Mat.   51  28.2  18.8  23.5  17.6  12.16  344.2  138.3    0.0    0.0    0    0    6    0    0   28  0.000  0.000  0.000  0.059  0.000  0.000


 Planting to Harvest       79  28.6  18.8  23.7  18.0  12.14  344.2  207.0    0.0    0.0    0    0   12    0    0   39  0.000  0.000  0.000  0.038  0.000  0.000
----------------------------------------------------------------------------------------------------------------------------------------------------------------

--------------------------------------------------------------------------------------------------------------

                  Dry bean YIELD :     2167 kg/ha    [Dry weight] 

**************************************************************************************************************

*DSSAT Cropping System Model Ver. 4.6.1.000 -release      JUL 11, 2017; 16:24:56
                                                                                
*RUN   6        : SIM                       CRGRO046 9\000009    1              
 MODEL          : CRGRO046 - Dry bean                                           
 EXPERIMENT     : 9\000009 BN PALMIRA_ANALISIS SENSIBILIDAD                     
 DATA PATH      : D:\B\0\00000                                                  
 TREATMENT  1   : SIM                       CRGRO046                            
                                                                                
                                                                                
 CROP           : Dry bean         CULTIVAR : Jatu Rong        ECOTYPE :ANDIND  
 STARTING DATE  : APR  2 1985                                                   
 PLANTING DATE  : APR 16 1985        PLANTS/m2 : 26.6     ROW SPACING :  60.cm  
 WEATHER        : PALM8034                                                      
 SOIL           : CCPA000030     TEXTURE : C     -   Silty Clay Loam            
 WATER BALANCE  : NOT SIMULATED ; NO H2O-STRESS                                 
 IRRIGATION     :                                                               
 NITROGEN BAL.  : NOT SIMULATED ; NO N-STRESS                                   
 N-FERTILIZER   :                                                               
 RESIDUE/MANURE :                                                               
 ENVIRONM. OPT. : DAYL=    0.00  SRAD=    0.00  TMAX=    0.00  TMIN=    0.00    
                  RAIN=    0.00  CO2 =    0.00  DEW =    0.00  WIND=    0.00    
 SIMULATION OPT : WATER   :N  NITROGEN:N  N-FIX:N  PHOSPH :N  PESTS  :N         
                  PHOTO   :L  ET      :R  INFIL:S  HYDROL :R  SOM    :G         
                  CO2 346ppm  NSWIT   :1  EVAP :S  SOIL   :2  STEMP  :D         
 MANAGEMENT OPT : PLANTING:A  IRRIG   :A  FERT :D  RESIDUE:N  HARVEST:M         
                  WEATHER :M  TILLAGE :N                                        
                                                                                
*SUMMARY OF SOIL AND GENETIC INPUT PARAMETERS                                   
                                                                                
 Dry bean   CULTIVAR :000009-Jatu Rong          ECOTYPE :ANDIND                 
 CSDVAR :12.17  PPSEN  : 0.05  EMG-FLW:26.00  FLW-FSD: 9.00  FSD-PHM : 11.00    
 WTPSD  :0.600  SDPDVR : 3.50  SDFDUR :15.00  PODDUR :10.00  XFRUIT  :  1.00    
 THRESH : 78.0  SDPRO  :0.235  SDLIP   : 0.030                                  


*SIMULATED CROP AND SOIL STATUS AT MAIN DEVELOPMENT STAGES

 RUN NO.     6     SIM                     

        CROP GROWTH     BIOMASS         LEAF   CROP N     STRESS      STRESS                                           
   DATE  AGE STAGE        kg/ha    LAI   NUM  kg/ha  %   H2O  Nitr Phos1 Phos2  RSTG                                   
 ------  --- ----------   -----  -----  ----  ---  ---  ----  ----  ----  ----  ----                                   
  2 APR    0 Start Sim        0   0.00   0.0    0  0.0  0.00  0.00  0.00  0.00     0
 16 APR    0 Sowing           0   0.00   0.0    0  0.0  0.00  0.00  0.00  0.00     0
 21 APR    5 Emergence       44   0.08   0.2    1  3.4  0.00  0.00  0.00  0.00     0
 21 APR    5 End Juven.      44   0.08   0.2    1  3.4  0.00  0.00  0.00  0.00     0
 24 APR    8 Unifoliate      48   0.09   1.1    2  3.3  0.00  0.66  0.00  0.00     0
 26 APR   10 Flower Ind      55   0.10   1.6    2  3.2  0.00  0.43  0.00  0.00     0
 19 MAY   33 First Flwr    1171   2.87   8.3   37  3.2  0.00  0.01  0.00  0.00     1
 22 MAY   36 First Pod     1566   3.50   9.2   48  3.1  0.00  0.00  0.00  0.00     3
 29 MAY   43 First Seed    2651   4.14  11.3   78  2.9  0.00  0.00  0.00  0.00     5
 31 MAY   45 End Msnode    2951   4.12  11.9   86  2.9  0.00  0.00  0.00  0.00     5
  5 JUN   50 End Pod       3682   3.78  11.9  106  2.9  0.00  0.00  0.00  0.00     5
  8 JUN   53 End Leaf      4103   3.51  11.9  116  2.8  0.00  0.00  0.00  0.00     5
 11 JUN   56 Phys. Mat     4526   3.21  11.9  126  2.8  0.00  0.00  0.00  0.00     7
 20 JUN   65 Harv. Mat     4179   0.22  11.9  116  2.8  0.00  0.00  0.00  0.00     8
 20 JUN   65 Harvest       4179   0.22  11.9  116  2.8  0.00  0.00  0.00  0.00     8


*MAIN GROWTH AND DEVELOPMENT VARIABLES

@     VARIABLE                                         SIMULATED     MEASURED
      --------                                         ---------     --------
      Anthesis day (dap)                                      33          -99
      First pod day (dap)                                     36          -99
      First seed day (dap)                                    43          -99
      Physiological maturity day (dap)                        56          -99
      Yield at harvest maturity (kg [dm]/ha)                2265          -99
      Pod/Ear/Panicle weight at maturity (kg [dm]/ha)       3215          -99
      Number at maturity (no/m2)                             602          -99
      Unit wt at maturity (g [dm]/unit)                   0.3766          -99
      Number at maturity (no/unit)                          3.50          -99
      Tops weight at maturity (kg [dm]/ha)                  4179          -99
      By-product produced (stalk) at maturity (kg[dm]/ha    1910          -99
      Leaf area index, maximum                              4.14          -99
      Harvest index at maturity                            0.542          -99
      Threshing % at maturity                              70.47          -99
      Grain N at maturity (kg/ha)                             85          -99
      Tops N at maturity (kg/ha)                             116          -99
      Stem N at maturity (kg/ha)                              11          -99
      Grain N at maturity (%)                               3.75          -99
      Tops weight at anthesis (kg [dm]/ha)                  1171          -99
      Tops N at anthesis (kg/ha)                              37          -99
      Leaf number per stem at maturity                     11.89          -99
      Grain oil at maturity (%)                             2.88          -99
      Canopy height (m)                                     1.05          -99
      Harvest maturity day (dap)                              65          -99
      Emergence day (dap)                                      5          -99


*ENVIRONMENTAL AND STRESS FACTORS

 |-----Development Phase------|--------------------------------------Environment--------------------------------------|-----------------Stress-----------------|
                              |---------------Average--------------|-----Cumulative-----|--------Count of days--------|          (0=Min, 1=Max Stress)         |
                         Time  Temp  Temp  Temp Solar Photop                Evapo    Pot TMIN TMIN TMAX TMAX TMAX RAIN|----Water----|---Nitrogen--|-Phosphorus-|
                         Span   Max   Min  Mean   Rad  [day]    CO2   Rain  Trans     ET   <    <    >    >    >    >   Photo         Photo         Photo
                         days    øC    øC    øC MJ/m2     hr    ppm     mm     mm     mm  0øC  2øC 30øC 32øC 34øC  0mm  synth Growth  synth Growth  synth Growth
----------------------------------------------------------------------------------------------------------------------------------------------------------------
 Emergence -First Flower   28  28.9  18.6  23.8  18.7  12.14  345.6   78.8    0.0    0.0    0    0    6    0    0   15  0.000  0.000  0.000  0.107  0.000  0.000
 First Flower-First Seed   10  30.2  19.5  24.8  18.6  12.18  345.7    8.7    0.0    0.0    0    0    5    0    0    3  0.000  0.000  0.000  0.000  0.000  0.000
 First Seed - Phys. Mat.   13  28.2  18.6  23.4  17.3  12.20  345.7   25.5    0.0    0.0    0    0    0    0    0    6  0.000  0.000  0.000  0.000  0.000  0.000
 Emergence  - Phys. Mat.   51  29.0  18.8  23.9  18.3  12.16  345.7  113.0    0.0    0.0    0    0   11    0    0   24  0.000  0.000  0.000  0.059  0.000  0.000


 Planting to Harvest       79  29.3  18.8  24.1  18.7  12.14  345.7  157.3    0.0    0.0    0    0   25    1    0   30  0.000  0.000  0.000  0.038  0.000  0.000
----------------------------------------------------------------------------------------------------------------------------------------------------------------

--------------------------------------------------------------------------------------------------------------

                  Dry bean YIELD :     2265 kg/ha    [Dry weight] 

**************************************************************************************************************

*DSSAT Cropping System Model Ver. 4.6.1.000 -release      JUL 11, 2017; 16:24:56
                                                                                
*RUN   7        : SIM                       CRGRO046 9\000009    1              
 MODEL          : CRGRO046 - Dry bean                                           
 EXPERIMENT     : 9\000009 BN PALMIRA_ANALISIS SENSIBILIDAD                     
 DATA PATH      : D:\B\0\00000                                                  
 TREATMENT  1   : SIM                       CRGRO046                            
                                                                                
                                                                                
 CROP           : Dry bean         CULTIVAR : Jatu Rong        ECOTYPE :ANDIND  
 STARTING DATE  : APR  2 1986                                                   
 PLANTING DATE  : APR 16 1986        PLANTS/m2 : 26.6     ROW SPACING :  60.cm  
 WEATHER        : PALM8034                                                      
 SOIL           : CCPA000030     TEXTURE : C     -   Silty Clay Loam            
 WATER BALANCE  : NOT SIMULATED ; NO H2O-STRESS                                 
 IRRIGATION     :                                                               
 NITROGEN BAL.  : NOT SIMULATED ; NO N-STRESS                                   
 N-FERTILIZER   :                                                               
 RESIDUE/MANURE :                                                               
 ENVIRONM. OPT. : DAYL=    0.00  SRAD=    0.00  TMAX=    0.00  TMIN=    0.00    
                  RAIN=    0.00  CO2 =    0.00  DEW =    0.00  WIND=    0.00    
 SIMULATION OPT : WATER   :N  NITROGEN:N  N-FIX:N  PHOSPH :N  PESTS  :N         
                  PHOTO   :L  ET      :R  INFIL:S  HYDROL :R  SOM    :G         
                  CO2 347ppm  NSWIT   :1  EVAP :S  SOIL   :2  STEMP  :D         
 MANAGEMENT OPT : PLANTING:A  IRRIG   :A  FERT :D  RESIDUE:N  HARVEST:M         
                  WEATHER :M  TILLAGE :N                                        
                                                                                
*SUMMARY OF SOIL AND GENETIC INPUT PARAMETERS                                   
                                                                                
 Dry bean   CULTIVAR :000009-Jatu Rong          ECOTYPE :ANDIND                 
 CSDVAR :12.17  PPSEN  : 0.05  EMG-FLW:26.00  FLW-FSD: 9.00  FSD-PHM : 11.00    
 WTPSD  :0.600  SDPDVR : 3.50  SDFDUR :15.00  PODDUR :10.00  XFRUIT  :  1.00    
 THRESH : 78.0  SDPRO  :0.235  SDLIP   : 0.030                                  


*SIMULATED CROP AND SOIL STATUS AT MAIN DEVELOPMENT STAGES

 RUN NO.     7     SIM                     

        CROP GROWTH     BIOMASS         LEAF   CROP N     STRESS      STRESS                                           
   DATE  AGE STAGE        kg/ha    LAI   NUM  kg/ha  %   H2O  Nitr Phos1 Phos2  RSTG                                   
 ------  --- ----------   -----  -----  ----  ---  ---  ----  ----  ----  ----  ----                                   
  2 APR    0 Start Sim        0   0.00   0.0    0  0.0  0.00  0.00  0.00  0.00     0
 16 APR    0 Sowing           0   0.00   0.0    0  0.0  0.00  0.00  0.00  0.00     0
 21 APR    5 Emergence       44   0.08   0.2    1  3.4  0.00  0.00  0.00  0.00     0
 21 APR    5 End Juven.      44   0.08   0.2    1  3.4  0.00  0.00  0.00  0.00     0
 24 APR    8 Unifoliate      48   0.09   1.1    2  3.3  0.00  0.66  0.00  0.00     0
 26 APR   10 Flower Ind      55   0.10   1.7    2  3.2  0.00  0.44  0.00  0.00     0
 19 MAY   33 First Flwr    1261   2.93   8.6   40  3.1  0.00  0.01  0.00  0.00     1
 21 MAY   35 First Pod     1532   3.32   9.2   47  3.1  0.00  0.00  0.00  0.00     3
 28 MAY   42 First Seed    2629   4.01  11.3   77  2.9  0.00  0.00  0.00  0.00     5
 30 MAY   44 End Msnode    2957   4.04  11.9   85  2.9  0.00  0.00  0.00  0.00     5
  4 JUN   49 End Pod       3688   3.77  11.9  105  2.8  0.00  0.00  0.00  0.00     5
  7 JUN   52 End Leaf      4091   3.50  11.9  114  2.8  0.00  0.00  0.00  0.00     5
 10 JUN   55 Phys. Mat     4517   3.20  11.9  123  2.7  0.00  0.00  0.00  0.00     7
 19 JUN   64 Harv. Mat     4080   0.22  11.9  110  2.7  0.00  0.00  0.00  0.00     8
 19 JUN   64 Harvest       4080   0.22  11.9  110  2.7  0.00  0.00  0.00  0.00     8


*MAIN GROWTH AND DEVELOPMENT VARIABLES

@     VARIABLE                                         SIMULATED     MEASURED
      --------                                         ---------     --------
      Anthesis day (dap)                                      33          -99
      First pod day (dap)                                     35          -99
      First seed day (dap)                                    42          -99
      Physiological maturity day (dap)                        55          -99
      Yield at harvest maturity (kg [dm]/ha)                2027          -99
      Pod/Ear/Panicle weight at maturity (kg [dm]/ha)       2986          -99
      Number at maturity (no/m2)                             593          -99
      Unit wt at maturity (g [dm]/unit)                   0.3419          -99
      Number at maturity (no/unit)                          3.50          -99
      Tops weight at maturity (kg [dm]/ha)                  4080          -99
      By-product produced (stalk) at maturity (kg[dm]/ha    2050          -99
      Leaf area index, maximum                              4.04          -99
      Harvest index at maturity                            0.497          -99
      Threshing % at maturity                              67.89          -99
      Grain N at maturity (kg/ha)                             76          -99
      Tops N at maturity (kg/ha)                             110          -99
      Stem N at maturity (kg/ha)                              12          -99
      Grain N at maturity (%)                               3.73          -99
      Tops weight at anthesis (kg [dm]/ha)                  1261          -99
      Tops N at anthesis (kg/ha)                              40          -99
      Leaf number per stem at maturity                     11.93          -99
      Grain oil at maturity (%)                             2.91          -99
      Canopy height (m)                                     1.06          -99
      Harvest maturity day (dap)                              64          -99
      Emergence day (dap)                                      5          -99


*ENVIRONMENTAL AND STRESS FACTORS

 |-----Development Phase------|--------------------------------------Environment--------------------------------------|-----------------Stress-----------------|
                              |---------------Average--------------|-----Cumulative-----|--------Count of days--------|          (0=Min, 1=Max Stress)         |
                         Time  Temp  Temp  Temp Solar Photop                Evapo    Pot TMIN TMIN TMAX TMAX TMAX RAIN|----Water----|---Nitrogen--|-Phosphorus-|
                         Span   Max   Min  Mean   Rad  [day]    CO2   Rain  Trans     ET   <    <    >    >    >    >   Photo         Photo         Photo
                         days    øC    øC    øC MJ/m2     hr    ppm     mm     mm     mm  0øC  2øC 30øC 32øC 34øC  0mm  synth Growth  synth Growth  synth Growth
----------------------------------------------------------------------------------------------------------------------------------------------------------------
 Emergence -First Flower   28  30.7  19.4  25.0  19.5  12.14  346.8   72.8    0.0    0.0    0    0   19    5    0   16  0.000  0.000  0.000  0.110  0.000  0.000
 First Flower-First Seed    9  30.9  19.2  25.1  19.4  12.18  346.9   46.1    0.0    0.0    0    0    8    0    0    5  0.000  0.000  0.000  0.000  0.000  0.000
 First Seed - Phys. Mat.   13  28.3  18.4  23.4  17.5  12.19  346.9   94.5    0.0    0.0    0    0    3    0    0    6  0.000  0.000  0.000  0.000  0.000  0.000
 Emergence  - Phys. Mat.   50  30.1  19.1  24.6  19.0  12.16  346.9  213.4    0.0    0.0    0    0   30    5    0   27  0.000  0.000  0.000  0.062  0.000  0.000


 Planting to Harvest       78  29.6  19.2  24.4  18.6  12.14  346.9  310.1    0.0    0.0    0    0   38    5    0   40  0.000  0.000  0.000  0.039  0.000  0.000
----------------------------------------------------------------------------------------------------------------------------------------------------------------

--------------------------------------------------------------------------------------------------------------

                  Dry bean YIELD :     2027 kg/ha    [Dry weight] 

**************************************************************************************************************

*DSSAT Cropping System Model Ver. 4.6.1.000 -release      JUL 11, 2017; 16:24:56
                                                                                
*RUN   8        : SIM                       CRGRO046 9\000009    1              
 MODEL          : CRGRO046 - Dry bean                                           
 EXPERIMENT     : 9\000009 BN PALMIRA_ANALISIS SENSIBILIDAD                     
 DATA PATH      : D:\B\0\00000                                                  
 TREATMENT  1   : SIM                       CRGRO046                            
                                                                                
                                                                                
 CROP           : Dry bean         CULTIVAR : Jatu Rong        ECOTYPE :ANDIND  
 STARTING DATE  : APR  2 1987                                                   
 PLANTING DATE  : APR 16 1987        PLANTS/m2 : 26.6     ROW SPACING :  60.cm  
 WEATHER        : PALM8034                                                      
 SOIL           : CCPA000030     TEXTURE : C     -   Silty Clay Loam            
 WATER BALANCE  : NOT SIMULATED ; NO H2O-STRESS                                 
 IRRIGATION     :                                                               
 NITROGEN BAL.  : NOT SIMULATED ; NO N-STRESS                                   
 N-FERTILIZER   :                                                               
 RESIDUE/MANURE :                                                               
 ENVIRONM. OPT. : DAYL=    0.00  SRAD=    0.00  TMAX=    0.00  TMIN=    0.00    
                  RAIN=    0.00  CO2 =    0.00  DEW =    0.00  WIND=    0.00    
 SIMULATION OPT : WATER   :N  NITROGEN:N  N-FIX:N  PHOSPH :N  PESTS  :N         
                  PHOTO   :L  ET      :R  INFIL:S  HYDROL :R  SOM    :G         
                  CO2 348ppm  NSWIT   :1  EVAP :S  SOIL   :2  STEMP  :D         
 MANAGEMENT OPT : PLANTING:A  IRRIG   :A  FERT :D  RESIDUE:N  HARVEST:M         
                  WEATHER :M  TILLAGE :N                                        
                                                                                
*SUMMARY OF SOIL AND GENETIC INPUT PARAMETERS                                   
                                                                                
 Dry bean   CULTIVAR :000009-Jatu Rong          ECOTYPE :ANDIND                 
 CSDVAR :12.17  PPSEN  : 0.05  EMG-FLW:26.00  FLW-FSD: 9.00  FSD-PHM : 11.00    
 WTPSD  :0.600  SDPDVR : 3.50  SDFDUR :15.00  PODDUR :10.00  XFRUIT  :  1.00    
 THRESH : 78.0  SDPRO  :0.235  SDLIP   : 0.030                                  


*SIMULATED CROP AND SOIL STATUS AT MAIN DEVELOPMENT STAGES

 RUN NO.     8     SIM                     

        CROP GROWTH     BIOMASS         LEAF   CROP N     STRESS      STRESS                                           
   DATE  AGE STAGE        kg/ha    LAI   NUM  kg/ha  %   H2O  Nitr Phos1 Phos2  RSTG                                   
 ------  --- ----------   -----  -----  ----  ---  ---  ----  ----  ----  ----  ----                                   
  2 APR    0 Start Sim        0   0.00   0.0    0  0.0  0.00  0.00  0.00  0.00     0
 16 APR    0 Sowing           0   0.00   0.0    0  0.0  0.00  0.00  0.00  0.00     0
 21 APR    5 Emergence       44   0.08   0.2    1  3.4  0.00  0.00  0.00  0.00     0
 21 APR    5 End Juven.      44   0.08   0.2    1  3.4  0.00  0.00  0.00  0.00     0
 24 APR    8 Unifoliate      49   0.09   1.1    2  3.3  0.00  0.65  0.00  0.00     0
 26 APR   10 Flower Ind      56   0.10   1.7    2  3.2  0.00  0.43  0.00  0.00     0
 19 MAY   33 First Flwr    1300   3.02   8.6   41  3.1  0.00  0.01  0.00  0.00     1
 21 MAY   35 First Pod     1577   3.43   9.2   49  3.1  0.00  0.00  0.00  0.00     3
 28 MAY   42 First Seed    2700   4.18  11.3   79  2.9  0.00  0.00  0.00  0.00     5
 30 MAY   44 End Msnode    3035   4.21  11.9   87  2.9  0.00  0.00  0.00  0.00     5
  4 JUN   49 End Pod       3771   3.92  11.9  107  2.8  0.00  0.00  0.00  0.00     5
  7 JUN   52 End Leaf      4193   3.61  11.9  117  2.8  0.00  0.00  0.00  0.00     5
  9 JUN   54 Phys. Mat     4468   3.38  11.9  123  2.7  0.00  0.00  0.00  0.00     7
 18 JUN   63 Harv. Mat     4012   0.23  11.9  107  2.7  0.00  0.00  0.00  0.00     8
 18 JUN   63 Harvest       4012   0.23  11.9  107  2.7  0.00  0.00  0.00  0.00     8


*MAIN GROWTH AND DEVELOPMENT VARIABLES

@     VARIABLE                                         SIMULATED     MEASURED
      --------                                         ---------     --------
      Anthesis day (dap)                                      33          -99
      First pod day (dap)                                     35          -99
      First seed day (dap)                                    42          -99
      Physiological maturity day (dap)                        54          -99
      Yield at harvest maturity (kg [dm]/ha)                1944          -99
      Pod/Ear/Panicle weight at maturity (kg [dm]/ha)       2866          -99
      Number at maturity (no/m2)                             590          -99
      Unit wt at maturity (g [dm]/unit)                   0.3293          -99
      Number at maturity (no/unit)                          3.50          -99
      Tops weight at maturity (kg [dm]/ha)                  4012          -99
      By-product produced (stalk) at maturity (kg[dm]/ha    2070          -99
      Leaf area index, maximum                              4.21          -99
      Harvest index at maturity                            0.485          -99
      Threshing % at maturity                              67.82          -99
      Grain N at maturity (kg/ha)                             73          -99
      Tops N at maturity (kg/ha)                             107          -99
      Stem N at maturity (kg/ha)                              13          -99
      Grain N at maturity (%)                               3.78          -99
      Tops weight at anthesis (kg [dm]/ha)                  1300          -99
      Tops N at anthesis (kg/ha)                              41          -99
      Leaf number per stem at maturity                     11.93          -99
      Grain oil at maturity (%)                             2.92          -99
      Canopy height (m)                                     1.05          -99
      Harvest maturity day (dap)                              63          -99
      Emergence day (dap)                                      5          -99


*ENVIRONMENTAL AND STRESS FACTORS

 |-----Development Phase------|--------------------------------------Environment--------------------------------------|-----------------Stress-----------------|
                              |---------------Average--------------|-----Cumulative-----|--------Count of days--------|          (0=Min, 1=Max Stress)         |
                         Time  Temp  Temp  Temp Solar Photop                Evapo    Pot TMIN TMIN TMAX TMAX TMAX RAIN|----Water----|---Nitrogen--|-Phosphorus-|
                         Span   Max   Min  Mean   Rad  [day]    CO2   Rain  Trans     ET   <    <    >    >    >    >   Photo         Photo         Photo
                         days    øC    øC    øC MJ/m2     hr    ppm     mm     mm     mm  0øC  2øC 30øC 32øC 34øC  0mm  synth Growth  synth Growth  synth Growth
----------------------------------------------------------------------------------------------------------------------------------------------------------------
 Emergence -First Flower   28  31.1  19.0  25.0  20.3  12.14  348.5  148.6    0.0    0.0    0    0   22    7    1   17  0.000  0.000  0.000  0.105  0.000  0.000
 First Flower-First Seed    9  31.9  19.6  25.8  20.0  12.18  348.6   66.5    0.0    0.0    0    0    9    4    0    5  0.000  0.000  0.000  0.000  0.000  0.000
 First Seed - Phys. Mat.   12  29.9  19.8  24.8  17.8  12.19  348.6   16.8    0.0    0.0    0    0    4    2    0    1  0.000  0.000  0.000  0.000  0.000  0.000
 Emergence  - Phys. Mat.   49  31.0  19.3  25.1  19.6  12.16  348.6  231.9    0.0    0.0    0    0   35   13    1   23  0.000  0.000  0.000  0.060  0.000  0.000


 Planting to Harvest       77  31.1  19.4  25.2  19.8  12.14  348.5  239.2    0.0    0.0    0    0   58   21    1   29  0.000  0.000  0.000  0.038  0.000  0.000
----------------------------------------------------------------------------------------------------------------------------------------------------------------

--------------------------------------------------------------------------------------------------------------

                  Dry bean YIELD :     1944 kg/ha    [Dry weight] 

**************************************************************************************************************

*DSSAT Cropping System Model Ver. 4.6.1.000 -release      JUL 11, 2017; 16:24:56
                                                                                
*RUN   9        : SIM                       CRGRO046 9\000009    1              
 MODEL          : CRGRO046 - Dry bean                                           
 EXPERIMENT     : 9\000009 BN PALMIRA_ANALISIS SENSIBILIDAD                     
 DATA PATH      : D:\B\0\00000                                                  
 TREATMENT  1   : SIM                       CRGRO046                            
                                                                                
                                                                                
 CROP           : Dry bean         CULTIVAR : Jatu Rong        ECOTYPE :ANDIND  
 STARTING DATE  : APR  1 1988                                                   
 PLANTING DATE  : APR 15 1988        PLANTS/m2 : 26.6     ROW SPACING :  60.cm  
 WEATHER        : PALM8034                                                      
 SOIL           : CCPA000030     TEXTURE : C     -   Silty Clay Loam            
 WATER BALANCE  : NOT SIMULATED ; NO H2O-STRESS                                 
 IRRIGATION     :                                                               
 NITROGEN BAL.  : NOT SIMULATED ; NO N-STRESS                                   
 N-FERTILIZER   :                                                               
 RESIDUE/MANURE :                                                               
 ENVIRONM. OPT. : DAYL=    0.00  SRAD=    0.00  TMAX=    0.00  TMIN=    0.00    
                  RAIN=    0.00  CO2 =    0.00  DEW =    0.00  WIND=    0.00    
 SIMULATION OPT : WATER   :N  NITROGEN:N  N-FIX:N  PHOSPH :N  PESTS  :N         
                  PHOTO   :L  ET      :R  INFIL:S  HYDROL :R  SOM    :G         
                  CO2 351ppm  NSWIT   :1  EVAP :S  SOIL   :2  STEMP  :D         
 MANAGEMENT OPT : PLANTING:A  IRRIG   :A  FERT :D  RESIDUE:N  HARVEST:M         
                  WEATHER :M  TILLAGE :N                                        
                                                                                
*SUMMARY OF SOIL AND GENETIC INPUT PARAMETERS                                   
                                                                                
 Dry bean   CULTIVAR :000009-Jatu Rong          ECOTYPE :ANDIND                 
 CSDVAR :12.17  PPSEN  : 0.05  EMG-FLW:26.00  FLW-FSD: 9.00  FSD-PHM : 11.00    
 WTPSD  :0.600  SDPDVR : 3.50  SDFDUR :15.00  PODDUR :10.00  XFRUIT  :  1.00    
 THRESH : 78.0  SDPRO  :0.235  SDLIP   : 0.030                                  


*SIMULATED CROP AND SOIL STATUS AT MAIN DEVELOPMENT STAGES

 RUN NO.     9     SIM                     

        CROP GROWTH     BIOMASS         LEAF   CROP N     STRESS      STRESS                                           
   DATE  AGE STAGE        kg/ha    LAI   NUM  kg/ha  %   H2O  Nitr Phos1 Phos2  RSTG                                   
 ------  --- ----------   -----  -----  ----  ---  ---  ----  ----  ----  ----  ----                                   
  1 APR    0 Start Sim        0   0.00   0.0    0  0.0  0.00  0.00  0.00  0.00     0
 15 APR    0 Sowing           0   0.00   0.0    0  0.0  0.00  0.00  0.00  0.00     0
 20 APR    5 Emergence       44   0.08   0.2    1  3.4  0.00  0.00  0.00  0.00     0
 20 APR    5 End Juven.      44   0.08   0.2    1  3.4  0.00  0.00  0.00  0.00     0
 23 APR    8 Unifoliate      48   0.09   1.0    2  3.3  0.00  0.65  0.00  0.00     0
 25 APR   10 Flower Ind      56   0.10   1.6    2  3.2  0.00  0.41  0.00  0.00     0
 18 MAY   33 First Flwr    1183   2.88   8.5   37  3.1  0.00  0.01  0.00  0.00     1
 20 MAY   35 First Pod     1438   3.29   9.0   44  3.1  0.00  0.00  0.00  0.00     3
 28 MAY   43 First Seed    2629   4.02  11.4   77  2.9  0.00  0.00  0.00  0.00     5
 30 MAY   45 End Msnode    2953   4.01  12.0   85  2.9  0.00  0.00  0.00  0.00     5
  3 JUN   49 End Pod       3577   3.81  12.0  102  2.9  0.00  0.00  0.00  0.00     5
  6 JUN   52 End Leaf      4003   3.53  12.0  112  2.8  0.00  0.00  0.00  0.00     5
  9 JUN   55 Phys. Mat     4420   3.21  12.0  121  2.7  0.00  0.00  0.00  0.00     7
 18 JUN   64 Harv. Mat     4013   0.22  12.0  108  2.7  0.00  0.00  0.00  0.00     8
 18 JUN   64 Harvest       4013   0.22  12.0  108  2.7  0.00  0.00  0.00  0.00     8


*MAIN GROWTH AND DEVELOPMENT VARIABLES

@     VARIABLE                                         SIMULATED     MEASURED
      --------                                         ---------     --------
      Anthesis day (dap)                                      33          -99
      First pod day (dap)                                     35          -99
      First seed day (dap)                                    43          -99
      Physiological maturity day (dap)                        55          -99
      Yield at harvest maturity (kg [dm]/ha)                1920          -99
      Pod/Ear/Panicle weight at maturity (kg [dm]/ha)       2904          -99
      Number at maturity (no/m2)                             636          -99
      Unit wt at maturity (g [dm]/unit)                   0.3018          -99
      Number at maturity (no/unit)                          3.50          -99
      Tops weight at maturity (kg [dm]/ha)                  4013          -99
      By-product produced (stalk) at maturity (kg[dm]/ha    2090          -99
      Leaf area index, maximum                              4.03          -99
      Harvest index at maturity                            0.479          -99
      Threshing % at maturity                              66.13          -99
      Grain N at maturity (kg/ha)                             73          -99
      Tops N at maturity (kg/ha)                             108          -99
      Stem N at maturity (kg/ha)                              12          -99
      Grain N at maturity (%)                               3.82          -99
      Tops weight at anthesis (kg [dm]/ha)                  1183          -99
      Tops N at anthesis (kg/ha)                              37          -99
      Leaf number per stem at maturity                     11.97          -99
      Grain oil at maturity (%)                             2.86          -99
      Canopy height (m)                                     1.06          -99
      Harvest maturity day (dap)                              64          -99
      Emergence day (dap)                                      5          -99


*ENVIRONMENTAL AND STRESS FACTORS

 |-----Development Phase------|--------------------------------------Environment--------------------------------------|-----------------Stress-----------------|
                              |---------------Average--------------|-----Cumulative-----|--------Count of days--------|          (0=Min, 1=Max Stress)         |
                         Time  Temp  Temp  Temp Solar Photop                Evapo    Pot TMIN TMIN TMAX TMAX TMAX RAIN|----Water----|---Nitrogen--|-Phosphorus-|
                         Span   Max   Min  Mean   Rad  [day]    CO2   Rain  Trans     ET   <    <    >    >    >    >   Photo         Photo         Photo
                         days    øC    øC    øC MJ/m2     hr    ppm     mm     mm     mm  0øC  2øC 30øC 32øC 34øC  0mm  synth Growth  synth Growth  synth Growth
----------------------------------------------------------------------------------------------------------------------------------------------------------------
 Emergence -First Flower   28  29.2  19.4  24.3  18.3  12.14  351.1   85.1    0.0    0.0    0    0    8    0    0   11  0.000  0.000  0.000  0.109  0.000  0.000
 First Flower-First Seed   10  28.8  19.2  24.0  17.5  12.18  351.2   83.9    0.0    0.0    0    0    2    0    0    5  0.000  0.000  0.000  0.000  0.000  0.000
 First Seed - Phys. Mat.   12  31.5  18.4  25.0  20.2  12.19  351.2   33.6    0.0    0.0    0    0    9    6    1    4  0.000  0.000  0.000  0.000  0.000  0.000
 Emergence  - Phys. Mat.   50  29.7  19.1  24.4  18.6  12.16  351.1  202.6    0.0    0.0    0    0   19    6    1   20  0.000  0.000  0.000  0.061  0.000  0.000


 Planting to Harvest       78  29.6  19.2  24.4  18.5  12.14  351.1  366.9    0.0    0.0    0    0   33    9    1   35  0.000  0.000  0.000  0.039  0.000  0.000
----------------------------------------------------------------------------------------------------------------------------------------------------------------

--------------------------------------------------------------------------------------------------------------

                  Dry bean YIELD :     1920 kg/ha    [Dry weight] 

**************************************************************************************************************

*DSSAT Cropping System Model Ver. 4.6.1.000 -release      JUL 11, 2017; 16:24:56
                                                                                
*RUN  10        : SIM                       CRGRO046 9\000009    1              
 MODEL          : CRGRO046 - Dry bean                                           
 EXPERIMENT     : 9\000009 BN PALMIRA_ANALISIS SENSIBILIDAD                     
 DATA PATH      : D:\B\0\00000                                                  
 TREATMENT  1   : SIM                       CRGRO046                            
[...]
      Emergence day (dap)                                      5          -99


*ENVIRONMENTAL AND STRESS FACTORS

 |-----Development Phase------|--------------------------------------Environment--------------------------------------|-----------------Stress-----------------|
                              |---------------Average--------------|-----Cumulative-----|--------Count of days--------|          (0=Min, 1=Max Stress)         |
                         Time  Temp  Temp  Temp Solar Photop                Evapo    Pot TMIN TMIN TMAX TMAX TMAX RAIN|----Water----|---Nitrogen--|-Phosphorus-|
                         Span   Max   Min  Mean   Rad  [day]    CO2   Rain  Trans     ET   <    <    >    >    >    >   Photo         Photo         Photo
                         days    øC    øC    øC MJ/m2     hr    ppm     mm     mm     mm  0øC  2øC 30øC 32øC 34øC  0mm  synth Growth  synth Growth  synth Growth
----------------------------------------------------------------------------------------------------------------------------------------------------------------
 Emergence -First Flower   28  30.4  19.0  24.7  19.7  12.14  387.0   52.7    0.0    0.0    0    0   21    2    0   15  0.000  0.000  0.000  0.101  0.000  0.000
 First Flower-First Seed   10  30.5  19.0  24.7  19.3  12.18  387.1    0.2    0.0    0.0    0    0    7    0    0    1  0.000  0.000  0.000  0.000  0.000  0.000
 First Seed - Phys. Mat.   12  30.5  19.3  24.9  18.7  12.19  387.1   42.2    0.0    0.0    0    0    7    3    0    6  0.000  0.000  0.000  0.000  0.000  0.000
 Emergence  - Phys. Mat.   50  30.5  19.1  24.8  19.3  12.16  387.0   95.1    0.0    0.0    0    0   35    5    0   22  0.000  0.000  0.000  0.056  0.000  0.000


 Planting to Harvest       78  30.1  19.2  24.6  19.1  12.14  387.0  106.2    0.0    0.0    0    0   46    5    0   33  0.000  0.000  0.000  0.036  0.000  0.000
----------------------------------------------------------------------------------------------------------------------------------------------------------------

--------------------------------------------------------------------------------------------------------------

                  Dry bean YIELD :     2123 kg/ha    [Dry weight] 

**************************************************************************************************************

*DSSAT Cropping System Model Ver. 4.6.1.000 -release      JUL 11, 2017; 16:24:56
                                                                                
*RUN  31        : SIM                       CRGRO046 9\000009    1              
 MODEL          : CRGRO046 - Dry bean                                           
 EXPERIMENT     : 9\000009 BN PALMIRA_ANALISIS SENSIBILIDAD                     
 DATA PATH      : D:\B\0\00000                                                  
 TREATMENT  1   : SIM                       CRGRO046                            
                                                                                
                                                                                
 CROP           : Dry bean         CULTIVAR : Jatu Rong        ECOTYPE :ANDIND  
 STARTING DATE  : APR  2 2010                                                   
 PLANTING DATE  : APR 16 2010        PLANTS/m2 : 26.6     ROW SPACING :  60.cm  
 WEATHER        : PALM8034                                                      
 SOIL           : CCPA000030     TEXTURE : C     -   Silty Clay Loam            
 WATER BALANCE  : NOT SIMULATED ; NO H2O-STRESS                                 
 IRRIGATION     :                                                               
 NITROGEN BAL.  : NOT SIMULATED ; NO N-STRESS                                   
 N-FERTILIZER   :                                                               
 RESIDUE/MANURE :                                                               
 ENVIRONM. OPT. : DAYL=    0.00  SRAD=    0.00  TMAX=    0.00  TMIN=    0.00    
                  RAIN=    0.00  CO2 =    0.00  DEW =    0.00  WIND=    0.00    
 SIMULATION OPT : WATER   :N  NITROGEN:N  N-FIX:N  PHOSPH :N  PESTS  :N         
                  PHOTO   :L  ET      :R  INFIL:S  HYDROL :R  SOM    :G         
                  CO2 389ppm  NSWIT   :1  EVAP :S  SOIL   :2  STEMP  :D         
 MANAGEMENT OPT : PLANTING:A  IRRIG   :A  FERT :D  RESIDUE:N  HARVEST:M         
                  WEATHER :M  TILLAGE :N                                        
                                                                                
*SUMMARY OF SOIL AND GENETIC INPUT PARAMETERS                                   
                                                                                
 Dry bean   CULTIVAR :000009-Jatu Rong          ECOTYPE :ANDIND                 
 CSDVAR :12.17  PPSEN  : 0.05  EMG-FLW:26.00  FLW-FSD: 9.00  FSD-PHM : 11.00    
 WTPSD  :0.600  SDPDVR : 3.50  SDFDUR :15.00  PODDUR :10.00  XFRUIT  :  1.00    
 THRESH : 78.0  SDPRO  :0.235  SDLIP   : 0.030                                  


*SIMULATED CROP AND SOIL STATUS AT MAIN DEVELOPMENT STAGES

 RUN NO.    31     SIM                     

        CROP GROWTH     BIOMASS         LEAF   CROP N     STRESS      STRESS                                           
   DATE  AGE STAGE        kg/ha    LAI   NUM  kg/ha  %   H2O  Nitr Phos1 Phos2  RSTG                                   
 ------  --- ----------   -----  -----  ----  ---  ---  ----  ----  ----  ----  ----                                   
  2 APR    0 Start Sim        0   0.00   0.0    0  0.0  0.00  0.00  0.00  0.00     0
 16 APR    0 Sowing           0   0.00   0.0    0  0.0  0.00  0.00  0.00  0.00     0
 21 APR    5 Emergence       44   0.08   0.2    1  3.4  0.00  0.00  0.00  0.00     0
 21 APR    5 End Juven.      44   0.08   0.2    1  3.4  0.00  0.00  0.00  0.00     0
 24 APR    8 Unifoliate      49   0.09   1.1    2  3.3  0.00  0.66  0.00  0.00     0
 26 APR   10 Flower Ind      55   0.10   1.7    2  3.1  0.00  0.45  0.00  0.00     0
 18 MAY   32 First Flwr    1212   3.01   8.5   38  3.1  0.00  0.00  0.00  0.00     1
 21 MAY   35 First Pod     1598   3.66   9.4   49  3.1  0.00  0.00  0.00  0.00     3
 28 MAY   42 First Seed    2681   4.29  11.4   78  2.9  0.00  0.00  0.00  0.00     5
 30 MAY   44 End Msnode    3010   4.27  12.0   87  2.9  0.00  0.00  0.00  0.00     5
  3 JUN   48 End Pod       3593   4.01  12.0  103  2.9  0.00  0.00  0.00  0.00     5
  6 JUN   51 End Leaf      4061   3.72  12.0  115  2.8  0.00  0.00  0.00  0.00     5
  9 JUN   54 Phys. Mat     4501   3.38  12.0  124  2.8  0.00  0.00  0.00  0.00     7
 18 JUN   63 Harv. Mat     4138   0.23  12.0  113  2.7  0.00  0.00  0.00  0.00     8
 18 JUN   63 Harvest       4138   0.23  12.0  113  2.7  0.00  0.00  0.00  0.00     8


*MAIN GROWTH AND DEVELOPMENT VARIABLES

@     VARIABLE                                         SIMULATED     MEASURED
      --------                                         ---------     --------
      Anthesis day (dap)                                      32          -99
      First pod day (dap)                                     35          -99
      First seed day (dap)                                    42          -99
      Physiological maturity day (dap)                        54          -99
      Yield at harvest maturity (kg [dm]/ha)                2103          -99
      Pod/Ear/Panicle weight at maturity (kg [dm]/ha)       3113          -99
      Number at maturity (no/m2)                             650          -99
      Unit wt at maturity (g [dm]/unit)                   0.3233          -99
      Number at maturity (no/unit)                          3.50          -99
      Tops weight at maturity (kg [dm]/ha)                  4138          -99
      By-product produced (stalk) at maturity (kg[dm]/ha    2030          -99
      Leaf area index, maximum                              4.29          -99
      Harvest index at maturity                            0.508          -99
      Threshing % at maturity                              67.55          -99
      Grain N at maturity (kg/ha)                             79          -99
      Tops N at maturity (kg/ha)                             113          -99
      Stem N at maturity (kg/ha)                              11          -99
      Grain N at maturity (%)                               3.76          -99
      Tops weight at anthesis (kg [dm]/ha)                  1212          -99
      Tops N at anthesis (kg/ha)                              38          -99
      Leaf number per stem at maturity                     12.03          -99
      Grain oil at maturity (%)                             2.90          -99
      Canopy height (m)                                     1.11          -99
      Harvest maturity day (dap)                              63          -99
      Emergence day (dap)                                      5          -99


*ENVIRONMENTAL AND STRESS FACTORS

 |-----Development Phase------|--------------------------------------Environment--------------------------------------|-----------------Stress-----------------|
                              |---------------Average--------------|-----Cumulative-----|--------Count of days--------|          (0=Min, 1=Max Stress)         |
                         Time  Temp  Temp  Temp Solar Photop                Evapo    Pot TMIN TMIN TMAX TMAX TMAX RAIN|----Water----|---Nitrogen--|-Phosphorus-|
                         Span   Max   Min  Mean   Rad  [day]    CO2   Rain  Trans     ET   <    <    >    >    >    >   Photo         Photo         Photo
                         days    øC    øC    øC MJ/m2     hr    ppm     mm     mm     mm  0øC  2øC 30øC 32øC 34øC  0mm  synth Growth  synth Growth  synth Growth
----------------------------------------------------------------------------------------------------------------------------------------------------------------
 Emergence -First Flower   27  30.0  20.4  25.2  17.9  12.13  389.4  124.3    0.0    0.0    0    0   16    1    0   11  0.000  0.000  0.000  0.110  0.000  0.000
 First Flower-First Seed   10  28.4  20.0  24.2  16.2  12.18  389.6   50.5    0.0    0.0    0    0    5    0    0    7  0.000  0.000  0.000  0.000  0.000  0.000
 First Seed - Phys. Mat.   12  29.0  19.5  24.3  17.2  12.19  389.6   41.1    0.0    0.0    0    0    5    0    0    5  0.000  0.000  0.000  0.000  0.000  0.000
 Emergence  - Phys. Mat.   49  29.4  20.1  24.8  17.4  12.16  389.5  215.9    0.0    0.0    0    0   26    1    0   23  0.000  0.000  0.000  0.061  0.000  0.000


 Planting to Harvest       77  29.4  19.9  24.6  17.8  12.14  389.5  371.7    0.0    0.0    0    0   38    3    0   41  0.000  0.000  0.000  0.039  0.000  0.000
----------------------------------------------------------------------------------------------------------------------------------------------------------------

--------------------------------------------------------------------------------------------------------------

                  Dry bean YIELD :     2103 kg/ha    [Dry weight] 

**************************************************************************************************************

*DSSAT Cropping System Model Ver. 4.6.1.000 -release      JUL 11, 2017; 16:24:56
                                                                                
*RUN  32        : SIM                       CRGRO046 9\000009    1              
 MODEL          : CRGRO046 - Dry bean                                           
 EXPERIMENT     : 9\000009 BN PALMIRA_ANALISIS SENSIBILIDAD                     
 DATA PATH      : D:\B\0\00000                                                  
 TREATMENT  1   : SIM                       CRGRO046                            
                                                                                
                                                                                
 CROP           : Dry bean         CULTIVAR : Jatu Rong        ECOTYPE :ANDIND  
 STARTING DATE  : APR  2 2011                                                   
 PLANTING DATE  : APR 16 2011        PLANTS/m2 : 26.6     ROW SPACING :  60.cm  
 WEATHER        : PALM8034                                                      
 SOIL           : CCPA000030     TEXTURE : C     -   Silty Clay Loam            
 WATER BALANCE  : NOT SIMULATED ; NO H2O-STRESS                                 
 IRRIGATION     :                                                               
 NITROGEN BAL.  : NOT SIMULATED ; NO N-STRESS                                   
 N-FERTILIZER   :                                                               
 RESIDUE/MANURE :                                                               
 ENVIRONM. OPT. : DAYL=    0.00  SRAD=    0.00  TMAX=    0.00  TMIN=    0.00    
                  RAIN=    0.00  CO2 =    0.00  DEW =    0.00  WIND=    0.00    
 SIMULATION OPT : WATER   :N  NITROGEN:N  N-FIX:N  PHOSPH :N  PESTS  :N         
                  PHOTO   :L  ET      :R  INFIL:S  HYDROL :R  SOM    :G         
                  CO2 391ppm  NSWIT   :1  EVAP :S  SOIL   :2  STEMP  :D         
 MANAGEMENT OPT : PLANTING:A  IRRIG   :A  FERT :D  RESIDUE:N  HARVEST:M         
                  WEATHER :M  TILLAGE :N                                        
                                                                                
*SUMMARY OF SOIL AND GENETIC INPUT PARAMETERS                                   
                                                                                
 Dry bean   CULTIVAR :000009-Jatu Rong          ECOTYPE :ANDIND                 
 CSDVAR :12.17  PPSEN  : 0.05  EMG-FLW:26.00  FLW-FSD: 9.00  FSD-PHM : 11.00    
 WTPSD  :0.600  SDPDVR : 3.50  SDFDUR :15.00  PODDUR :10.00  XFRUIT  :  1.00    
 THRESH : 78.0  SDPRO  :0.235  SDLIP   : 0.030                                  


*SIMULATED CROP AND SOIL STATUS AT MAIN DEVELOPMENT STAGES

 RUN NO.    32     SIM                     

        CROP GROWTH     BIOMASS         LEAF   CROP N     STRESS      STRESS                                           
   DATE  AGE STAGE        kg/ha    LAI   NUM  kg/ha  %   H2O  Nitr Phos1 Phos2  RSTG                                   
 ------  --- ----------   -----  -----  ----  ---  ---  ----  ----  ----  ----  ----                                   
  2 APR    0 Start Sim        0   0.00   0.0    0  0.0  0.00  0.00  0.00  0.00     0
 16 APR    0 Sowing           0   0.00   0.0    0  0.0  0.00  0.00  0.00  0.00     0
 21 APR    5 Emergence       44   0.08   0.2    1  3.4  0.00  0.00  0.00  0.00     0
 21 APR    5 End Juven.      44   0.08   0.2    1  3.4  0.00  0.00  0.00  0.00     0
 24 APR    8 Unifoliate      49   0.09   1.1    2  3.3  0.00  0.64  0.00  0.00     0
 26 APR   10 Flower Ind      57   0.10   1.7    2  3.1  0.00  0.39  0.00  0.00     0
 19 MAY   33 First Flwr    1341   3.19   8.6   42  3.1  0.00  0.01  0.00  0.00     1
 21 MAY   35 First Pod     1635   3.60   9.2   50  3.1  0.00  0.00  0.00  0.00     3
 28 MAY   42 First Seed    2818   4.37  11.3   82  2.9  0.00  0.00  0.00  0.00     5
 31 MAY   45 End Msnode    3345   4.37  12.2   96  2.9  0.00  0.00  0.00  0.00     5
  4 JUN   49 End Pod       3915   4.06  12.2  111  2.8  0.00  0.00  0.00  0.00     5
  7 JUN   52 End Leaf      4376   3.75  12.2  122  2.8  0.00  0.00  0.00  0.00     5
 10 JUN   55 Phys. Mat     4823   3.40  12.2  131  2.7  0.00  0.00  0.00  0.00     7
 19 JUN   64 Harv. Mat     4427   0.23  12.2  120  2.7  0.00  0.00  0.00  0.00     8
 19 JUN   64 Harvest       4427   0.23  12.2  120  2.7  0.00  0.00  0.00  0.00     8


*MAIN GROWTH AND DEVELOPMENT VARIABLES

@     VARIABLE                                         SIMULATED     MEASURED
      --------                                         ---------     --------
      Anthesis day (dap)                                      33          -99
      First pod day (dap)                                     35          -99
      First seed day (dap)                                    42          -99
      Physiological maturity day (dap)                        55          -99
      Yield at harvest maturity (kg [dm]/ha)                2171          -99
      Pod/Ear/Panicle weight at maturity (kg [dm]/ha)       3244          -99
      Number at maturity (no/m2)                             689          -99
      Unit wt at maturity (g [dm]/unit)                   0.3150          -99
      Number at maturity (no/unit)                          3.50          -99
      Tops weight at maturity (kg [dm]/ha)                  4427          -99
      By-product produced (stalk) at maturity (kg[dm]/ha    2260          -99
      Leaf area index, maximum                              4.39          -99
      Harvest index at maturity                            0.490          -99
      Threshing % at maturity                              66.92          -99
      Grain N at maturity (kg/ha)                             83          -99
      Tops N at maturity (kg/ha)                             120          -99
      Stem N at maturity (kg/ha)                              13          -99
      Grain N at maturity (%)                               3.85          -99
      Tops weight at anthesis (kg [dm]/ha)                  1341          -99
      Tops N at anthesis (kg/ha)                              42          -99
      Leaf number per stem at maturity                     12.15          -99
      Grain oil at maturity (%)                             2.82          -99
      Canopy height (m)                                     1.09          -99
      Harvest maturity day (dap)                              64          -99
      Emergence day (dap)                                      5          -99


*ENVIRONMENTAL AND STRESS FACTORS

 |-----Development Phase------|--------------------------------------Environment--------------------------------------|-----------------Stress-----------------|
                              |---------------Average--------------|-----Cumulative-----|--------Count of days--------|          (0=Min, 1=Max Stress)         |
                         Time  Temp  Temp  Temp Solar Photop                Evapo    Pot TMIN TMIN TMAX TMAX TMAX RAIN|----Water----|---Nitrogen--|-Phosphorus-|
                         Span   Max   Min  Mean   Rad  [day]    CO2   Rain  Trans     ET   <    <    >    >    >    >   Photo         Photo         Photo
                         days    øC    øC    øC MJ/m2     hr    ppm     mm     mm     mm  0øC  2øC 30øC 32øC 34øC  0mm  synth Growth  synth Growth  synth Growth
----------------------------------------------------------------------------------------------------------------------------------------------------------------
 Emergence -First Flower   28  30.0  19.5  24.7  18.8  12.14  391.2   84.3    0.0    0.0    0    0   14    1    0   15  0.000  0.000  0.000  0.102  0.000  0.000
 First Flower-First Seed    9  30.4  19.0  24.7  19.2  12.18  391.4    2.4    0.0    0.0    0    0    6    0    0    4  0.000  0.000  0.000  0.000  0.000  0.000
 First Seed - Phys. Mat.   13  29.8  19.6  24.7  17.8  12.19  391.4   23.2    0.0    0.0    0    0    8    1    0    4  0.000  0.000  0.000  0.000  0.000  0.000
 Emergence  - Phys. Mat.   50  30.0  19.4  24.7  18.6  12.16  391.3  109.9    0.0    0.0    0    0   28    2    0   23  0.000  0.000  0.000  0.057  0.000  0.000


 Planting to Harvest       78  29.7  19.4  24.6  18.5  12.14  391.3  272.6    0.0    0.0    0    0   37    4    0   44  0.000  0.000  0.000  0.037  0.000  0.000
----------------------------------------------------------------------------------------------------------------------------------------------------------------

--------------------------------------------------------------------------------------------------------------

                  Dry bean YIELD :     2171 kg/ha    [Dry weight] 

**************************************************************************************************************
