*GROWTH ASPECTS OUTPUT FILE

*DSSAT Cropping System Model Ver. 4.6.1.000 -release      JUL 11, 2017; 16:24:56
                                                                                
*RUN   1        : SIM                       CRGRO046 9\000009    1              
 MODEL          : CRGRO046 - Dry bean                                           
 EXPERIMENT     : 9\000009 BN PALMIRA_ANALISIS SENSIBILIDAD                     
 DATA PATH      : D:\B\0\00000                                                  
 TREATMENT  1   : SIM                       CRGRO046                            
  
!                                                                                                                                                                                                                                                    Root Dens. (cm/cm3) by soil depth (cm):
!                                                                                                                                                                                                                                                    0-5    5-15   15-25   25-35   35-50   50-65   65-80   80-99  99-122 122-209
@YEAR DOY   DAS   DAP   L#SD   GSTD   LAID   LWAD   SWAD   GWAD   RWAD   VWAD   CWAD   G#AD    GWGD   HIAD   PWAD   P#AD   WSPD   WSGD   NSTD  PST1A  PST2A   KSTD   EWSD    LN%D   SH%D   HIPD   PWDD   PWTD   SLAD   CHTD   CWID   NWAD   RDPD    RL1D    RL2D    RL3D    RL4D    RL5D    RL6D    RL7D    RL8D    RL9D   RL10D    SNW0C   SNW1C
 1980 106    15     0    0.0      0  0.000      0      0      0      0      0      0      0     0.0  0.000      0      0  0.000  0.000  0.000  0.000  0.000  0.000  0.000    0.00   0.00   0.00      0      0    0.0   0.00   0.00    0.0   0.00    0.00    0.00    0.00    0.00    0.00    0.00    0.00    0.00    0.00    0.00        0       0
 1980 107    16     1    0.0      0  0.000      0      0      0      0      0      0      0     0.0  0.000      0      0  0.000  0.000  0.000  0.000  0.000  0.000  0.000    0.00   0.00   0.00      0      0    0.0   0.00   0.00    0.0   0.00    0.00    0.00    0.00    0.00    0.00    0.00    0.00    0.00    0.00    0.00        0       0
 1980 108    17     2    0.0      0  0.000      0      0      0      0      0      0      0     0.0  0.000      0      0  0.000  0.000  0.000  0.000  0.000  0.000  0.000    0.00   0.00   0.00      0      0    0.0   0.00   0.00    0.0   0.00    0.00    0.00    0.00    0.00    0.00    0.00    0.00    0.00    0.00    0.00        0       0
 1980 109    18     3    0.0      0  0.000      0      0      0      0      0      0      0     0.0  0.000      0      0  0.000  0.000  0.000  0.000  0.000  0.000  0.000    0.00   0.00   0.00      0      0    0.0   0.00   0.00    0.0   0.00    0.00    0.00    0.00    0.00    0.00    0.00    0.00    0.00    0.00    0.00        0       0
 1980 110    19     4    0.0      0  0.000      0      0      0      0      0      0      0     0.0  0.000      0      0  0.000  0.000  0.000  0.000  0.000  0.000  0.000    0.00   0.00   0.00      0      0    0.0   0.00   0.00    0.0   0.00    0.00    0.00    0.00    0.00    0.00    0.00    0.00    0.00    0.00    0.00        0       0
 1980 111    20     5    0.2      0  0.079     31     13      0     43     44     44      0     0.0  0.000      0      0  0.000  0.000  0.000  0.000  0.000  0.000  0.000    3.84   0.00   0.00      0      0  256.8   0.04   0.03    0.0   0.27    0.15    0.15    0.15    0.00    0.00    0.00    0.00    0.00    0.00    0.00        0       1
 1980 112    21     6    0.5      0  0.082     31     14      0     50     45     45      0     0.0  0.000      0      0  0.000  0.000  0.646  0.000  0.000  0.000  0.000    3.78   0.00   0.00      0      0  261.8   0.05   0.03    0.0   0.29    0.18    0.18    0.17    0.01    0.00    0.00    0.00    0.00    0.00    0.00        0       2
 1980 113    22     7    0.8      0  0.085     32     15      0     59     47     47      0     0.0  0.000      0      0  0.000  0.000  0.737  0.000  0.000  0.000  0.000    3.72   0.00   0.00      0      0  265.6   0.07   0.04    0.0   0.32    0.21    0.21    0.20    0.02    0.00    0.00    0.00    0.00    0.00    0.00        0       3
 1980 114    23     8    1.1      0  0.088     33     16      0     67     49     49      0     0.0  0.000      0      0  0.000  0.000  0.546  0.000  0.000  0.000  0.000    3.71   0.00   0.00      0      0  271.5   0.08   0.05    0.0   0.34    0.24    0.24    0.21    0.03    0.00    0.00    0.00    0.00    0.00    0.00        0       4
 1980 115    24     9    1.4      0  0.092     33     18      0     74     51     51      0     0.0  0.000      0      0  0.000  0.000  0.519  0.000  0.000  0.000  0.000    3.68   0.00   0.00      0      0  278.2   0.09   0.05    0.0   0.36    0.26    0.26    0.23    0.05    0.00    0.00    0.00    0.00    0.00    0.00        1       6
 1980 116    25    10    1.7      0  0.098     34     22      0     79     56     56      0     0.0  0.000      0      0  0.000  0.000  0.303  0.000  0.000  0.000  0.000    3.66   0.00   0.00      0      0  285.5   0.10   0.06    0.0   0.38    0.28    0.28    0.24    0.06    0.00    0.00    0.00    0.00    0.00    0.00        1       7
 1980 117    26    11    2.0      0  0.114     37     25      0     82     62     62      0     0.0  0.000      0      0  0.000  0.000  0.204  0.000  0.000  0.000  0.000    3.63   0.00   0.00      0      0  308.2   0.11   0.07    0.0   0.40    0.28    0.28    0.25    0.06    0.00    0.00    0.00    0.00    0.00    0.00        2       9
 1980 118    27    12    2.3      0  0.141     44     28      0     82     72     72      0     0.0  0.000      0      0  0.000  0.000  0.000  0.000  0.000  0.000  0.000    3.61   0.00   0.00      0      0  323.5   0.11   0.08    0.0   0.42    0.29    0.29    0.25    0.06    0.00    0.00    0.00    0.00    0.00    0.00        2      11
 1980 119    28    13    2.6      0  0.168     49     34      0     84     83     83      0     0.0  0.000      0      0  0.000  0.000  0.000  0.000  0.000  0.000  0.000    3.56   0.00   0.00      0      0  339.2   0.12   0.08    0.0   0.44    0.29    0.29    0.25    0.07    0.01    0.00    0.00    0.00    0.00    0.00        3      12
 1980 120    29    14    2.9      0  0.206     57     39      0     85     96     96      0     0.0  0.000      0      0  0.000  0.000  0.000  0.000  0.000  0.000  0.000    3.53   0.00   0.00      0      0  358.4   0.13   0.09    0.0   0.46    0.29    0.29    0.25    0.07    0.01    0.00    0.00    0.00    0.00    0.00        3      14
 1980 121    30    15    3.2      0  0.258     70     42      0     85    113    113      0     0.0  0.000      0      0  0.000  0.000  0.000  0.000  0.000  0.000  0.000    3.53   0.00   0.00      0      0  367.5   0.14   0.10    0.0   0.49    0.29    0.29    0.25    0.07    0.01    0.00    0.00    0.00    0.00    0.00        4      16
 1980 122    31    16    3.5      0  0.313     81     49      0     86    131    131      0     0.0  0.000      0      0  0.000  0.000  0.000  0.000  0.000  0.000  0.000    3.52   0.00   0.00      0      0  385.3   0.15   0.12    0.0   0.51    0.29    0.29    0.25    0.07    0.01    0.00    0.00    0.00    0.00    0.00        5      18
 1980 123    32    17    3.8      0  0.365     93     59      0     88    152    152      0     0.0  0.000      0      0  0.000  0.000  0.000  0.000  0.000  0.000  0.000    3.52   0.00   0.00      0      0  390.6   0.16   0.14    0.0   0.53    0.30    0.30    0.25    0.08    0.02    0.00    0.00    0.00    0.00    0.00        5      19
 1980 124    33    18    4.1      0  0.417    105     72      0     90    177    177      0     0.0  0.000      0      0  0.000  0.000  0.000  0.000  0.000  0.000  0.000    3.51   0.00   0.00      0      0  395.5   0.17   0.16    0.0   0.54    0.30    0.30    0.26    0.08    0.02    0.00    0.00    0.00    0.00    0.00        6      21
 1980 125    34    19    4.4      0  0.493    122     83      0     92    206    206      0     0.0  0.000      0      0  0.000  0.000  0.000  0.000  0.000  0.000  0.000    3.52   0.00   0.00      0      0  402.4   0.19   0.18    0.0   0.56    0.31    0.31    0.26    0.09    0.02    0.00    0.00    0.00    0.00    0.00        8      23
 1980 126    35    20    4.7      0  0.604    148     92      0     93    240    240      0     0.0  0.000      0      0  0.000  0.000  0.000  0.000  0.000  0.000  0.000    3.54   0.00   0.00      0      0  407.6   0.20   0.20    0.0   0.58    0.31    0.31    0.26    0.09    0.03    0.00    0.00    0.00    0.00    0.00        9      25
 1980 127    36    21    5.0      0  0.739    178    102      0     94    280    280      0     0.0  0.000      0      0  0.000  0.000  0.000  0.000  0.000  0.000  0.000    3.55   0.00   0.00      0      0  416.4   0.22   0.22    0.0   0.60    0.31    0.31    0.26    0.09    0.03    0.00    0.00    0.00    0.00    0.00       11      27
 1980 128    37    22    5.3      0  0.869    207    120      0     98    327    327      0     0.0  0.000      0      0  0.000  0.000  0.000  0.000  0.000  0.000  0.000    3.56   0.00   0.00      0      0  419.2   0.24   0.25    0.0   0.62    0.32    0.32    0.27    0.10    0.03    0.01    0.00    0.00    0.00    0.00       13      29
 1980 129    38    23    5.6      0  1.018    241    140      0    102    381    381      0     0.0  0.000      0      0  0.000  0.000  0.000  0.000  0.000  0.000  0.000    3.56   0.00   0.00      0      0  422.5   0.26   0.27    0.0   0.64    0.33    0.33    0.27    0.10    0.04    0.01    0.00    0.00    0.00    0.00       15      31
 1980 130    39    24    5.9      0  1.177    279    164      0    107    442    442      0     0.0  0.000      0      0  0.000  0.000  0.000  0.000  0.000  0.000  0.000    3.57   0.00   0.00      0      0  422.3   0.28   0.29    0.0   0.65    0.34    0.34    0.28    0.11    0.04    0.01    0.00    0.00    0.00    0.00       18      33
 1980 131    40    25    6.2      0  1.369    321    191      0    113    512    512      0     0.0  0.000      0      0  0.000  0.000  0.000  0.000  0.000  0.000  0.000    3.57   0.00   0.00      0      0  426.2   0.31   0.31    0.0   0.67    0.35    0.35    0.29    0.12    0.05    0.02    0.00    0.00    0.00    0.00       21      36
 1980 132    41    26    6.5      0  1.561    366    222      0    120    588    588      0     0.0  0.000      0      0  0.000  0.000  0.000  0.000  0.000  0.000  0.000    3.59   0.00   0.00      0      0  426.5   0.34   0.33    0.0   0.69    0.37    0.37    0.30    0.13    0.06    0.02    0.00    0.00    0.00    0.00       29      38
 1980 133    42    27    6.8      0  1.746    407    255      0    128    662    662      0     0.0  0.000      0      0  0.000  0.000  0.000  0.000  0.000  0.000  0.000    3.65   0.00   0.00      0      0  428.9   0.37   0.36    0.0   0.71    0.39    0.39    0.31    0.14    0.06    0.03    0.00    0.00    0.00    0.00       47      41
 1980 134    43    28    7.1      0  1.953    441    287      0    135    728    728      0     0.0  0.000      0      0  0.000  0.000  0.000  0.000  0.000  0.000  0.000    3.70   0.00   0.00      0      0  443.1   0.40   0.38    0.0   0.72    0.40    0.40    0.33    0.15    0.07    0.03    0.00    0.00    0.00    0.00       67      44
 1980 135    44    29    7.4      0  2.154    480    327      0    144    807    807      0     0.0  0.000      0      0  0.000  0.000  0.000  0.000  0.000  0.000  0.000    3.75   0.00   0.00      0      0  448.8   0.43   0.40    0.0   0.74    0.42    0.42    0.34    0.16    0.08    0.04    0.01    0.00    0.00    0.00       90      46
 1980 136    45    30    7.7      0  2.345    518    370      0    153    888    888      0     0.0  0.000      0      0  0.000  0.000  0.000  0.000  0.000  0.000  0.000    3.81   0.00   0.00      0      0  453.1   0.46   0.42    0.0   0.76    0.45    0.45    0.36    0.17    0.09    0.04    0.01    0.00    0.00    0.00      117      49
 1980 137    46    31    7.9      0  2.514    558    421      0    164    979    979      0     0.0  0.000      0      0  0.000  0.000  0.000  0.000  0.000  0.000  0.000    3.87   0.00   0.00      0      0  450.7   0.49   0.44    0.0   0.77    0.47    0.47    0.37    0.18    0.10    0.05    0.01    0.00    0.00    0.00      149      53
 1980 138    47    32    8.2      0  2.729    608    481      0    175   1088   1088      0     0.0  0.000      0      0  0.000  0.000  0.000  0.000  0.000  0.000  0.000    3.88   0.00   0.00      0      0  449.1   0.52   0.46    0.0   0.79    0.50    0.50    0.39    0.20    0.11    0.05    0.02    0.00    0.00    0.00      170      56
 1980 139    48    33    8.5      1  2.955    659    548      0    187   1208   1208      0     0.0  0.000      0      0  0.000  0.000  0.000  0.000  0.000  0.000  0.000    3.87   0.00   0.00      0      0  448.2   0.55   0.48    0.0   0.81    0.52    0.52    0.41    0.21    0.12    0.06    0.02    0.00    0.00    0.00      190      60
 1980 140    49    34    8.8      1  3.159    713    621      0    200   1334   1334      0     0.0  0.000      0      0  0.000  0.000  0.000  0.000  0.000  0.000  0.000    3.87   0.00   0.00      0      0  443.3   0.58   0.50    0.0   0.82    0.55    0.55    0.43    0.23    0.13    0.07    0.03    0.00    0.00    0.00      209      64
 1980 141    50    35    9.1      3  3.333    769    702      0    213   1471   1471      0     0.0  0.000      0      0  0.000  0.000  0.000  0.000  0.000  0.000  0.000    3.86   0.00   0.00      0      0  433.5   0.61   0.52    0.0   0.84    0.58    0.58    0.46    0.24    0.14    0.07    0.04    0.00    0.00    0.00      230      68
 1980 142    51    36    9.5      3  3.512    820    782      0    225   1603   1603      0     0.0  0.000      0      0  0.000  0.000  0.000  0.000  0.000  0.000  0.000    3.86   0.00   0.00      0      0  428.2   0.64   0.54    0.0   0.86    0.61    0.61    0.48    0.26    0.15    0.08    0.04    0.00    0.00    0.00      253      73
 1980 143    52    37    9.8      3  3.667    873    868      0    238   1741   1746      0     0.0  0.000      5      7  0.000  0.000  0.000  0.000  0.000  0.000  0.000    3.85   0.00   0.00      0      5  420.1   0.68   0.55    0.0   0.87    0.64    0.64    0.50    0.27    0.17    0.09    0.05    0.00    0.00    0.00      274      78
 1980 144    53    38   10.1      3  3.787    920    951      0    249   1871   1893      0     0.0  0.000     22     20  0.000  0.000  0.000  0.000  0.000  0.000  0.000    3.84   0.00   0.01      0     22  411.5   0.72   0.57    0.0   0.89    0.66    0.66    0.52    0.29    0.18    0.09    0.05    0.01    0.00    0.00      296      83
 1980 145    54    39   10.4      3  3.880    962   1029      0    259   1992   2043      0     0.0  0.000     51     34  0.000  0.000  0.000  0.000  0.000  0.000  0.000    3.83   0.00   0.02      0     51  403.2   0.75   0.58    0.0   0.91    0.68    0.68    0.53    0.30    0.18    0.10    0.05    0.01    0.00    0.00      317      88
 1980 146    55    40   10.7      3  3.950   1003   1109      0    268   2112   2203      0     0.0  0.000     91     49  0.000  0.000  0.000  0.000  0.000  0.000  0.000    3.81   0.00   0.04      0     91  393.7   0.79   0.59    0.0   0.92    0.70    0.70    0.55    0.31    0.19    0.10    0.06    0.01    0.00    0.00      337      94
 1980 147    56    41   11.0      3  3.994   1035   1179      0    276   2214   2359      0     0.0  0.000    145     64  0.000  0.000  0.000  0.000  0.000  0.000  0.000    3.80   0.00   0.06      0    145  385.7   0.83   0.60    0.0   0.94    0.72    0.72    0.56    0.32    0.20    0.11    0.06    0.01    0.00    0.00      355      99
 1980 148    57    42   11.3      5  4.021   1062   1242      0    281   2304   2515      0     0.0  0.000    210     79  0.000  0.000  0.000  0.000  0.000  0.000  0.000    3.77   0.00   0.08      0    210  378.6   0.86   0.60    0.0   0.96    0.73    0.73    0.56    0.32    0.20    0.11    0.06    0.01    0.00    0.00      372     105
 1980 149    58    43   11.6      5  4.038   1086   1301      0    286   2387   2672     22     0.0  0.000    286     94  0.000  0.000  0.000  0.000  0.000  0.000  0.000    3.75   0.00   0.11      0    286  371.8   0.90   0.60    0.0   0.97    0.74    0.74    0.57    0.33    0.21    0.11    0.07    0.02    0.00    0.00      389     112
 1980 150    59    44   11.9      5  4.033   1102   1348      8    288   2451   2830     67    12.4  0.003    380    109  0.000  0.000  0.000  0.000  0.000  0.000  0.000    3.72   2.19   0.13      0    380  365.8   0.94   0.60    0.0   0.99    0.74    0.74    0.57    0.33    0.21    0.11    0.07    0.02    0.00    0.00      407     118
 1980 151    60    45   11.9      5  3.997   1101   1369     35    287   2470   2971    114    30.3  0.012    501    124  0.000  0.000  0.000  0.000  0.000  0.000  0.000    3.69   6.91   0.17      0    501  363.0   0.98   0.60    0.0   1.01    0.74    0.74    0.57    0.33    0.21    0.11    0.07    0.02    0.00    0.00      426     124
 1980 152    61    46   11.9      5  3.956   1099   1390     78    285   2489   3127    163    48.0  0.025    637    138  0.000  0.000  0.000  0.000  0.000  0.000  0.000    3.67  12.29   0.20      0    637  359.8   1.02   0.60    0.0   1.02    0.73    0.73    0.57    0.33    0.21    0.11    0.07    0.02    0.00    0.00      446     130
 1980 153    62    47   11.9      5  3.886   1079   1380    143    280   2459   3261    163    87.6  0.044    802    154  0.000  0.000  0.000  0.000  0.000  0.000  0.000    3.63  17.81   0.25      0    802  360.1   1.06   0.60    0.0   1.04    0.72    0.72    0.56    0.32    0.21    0.11    0.07    0.02    0.00    0.00      462     136
 1980 154    63    48   11.9      5  3.822   1059   1366    206    274   2425   3383    212    96.8  0.061    958    168  0.000  0.000  0.000  0.000  0.000  0.000  0.000    3.59  21.45   0.28      0    958  360.9   1.06   0.60    0.0   1.05    0.71    0.71    0.55    0.32    0.20    0.11    0.07    0.02    0.00    0.00      480     140
 1980 155    64    49   11.9      5  3.746   1040   1361    287    270   2400   3529    264   108.6  0.081   1129    180  0.000  0.000  0.000  0.000  0.000  0.000  0.000    3.53  25.41   0.32      0   1129  360.3   1.06   0.60    0.0   1.07    0.70    0.70    0.54    0.31    0.20    0.11    0.07    0.02    0.00    0.00      502     146
 1980 156    65    50   11.9      5  3.657   1012   1342    388    264   2354   3670    316   123.0  0.106   1316    195  0.000  0.000  0.000  0.000  0.000  0.000  0.000    3.47  29.52   0.36      0   1316  361.4   1.06   0.60    0.0   1.07    0.68    0.68    0.53    0.31    0.20    0.10    0.06    0.02    0.00    0.00      527     152
 1980 157    66    51   11.9      5  3.565    983   1323    509    258   2306   3812    368   138.5  0.134   1506    206  0.000  0.000  0.000  0.000  0.000  0.000  0.000    3.39  33.80   0.40      0   1506  362.5   1.06   0.60    0.0   1.08    0.67    0.67    0.52    0.30    0.19    0.10    0.06    0.02    0.00    0.00      552     157
 1980 158    67    52   11.9      5  3.463    952   1303    651    251   2255   3948    420   154.9  0.165   1692    215  0.000  0.000  0.000  0.000  0.000  0.000  0.000    3.31  38.48   0.43      0   1692  363.8   1.06   0.60    0.0   1.08    0.65    0.65    0.50    0.29    0.19    0.10    0.06    0.02    0.00    0.00      579     163
 1980 159    68    53   11.9      5  3.357    920   1284    811    245   2204   4085    471   172.2  0.198   1880    220  0.000  0.000  0.000  0.000  0.000  0.000  0.000    3.22  43.11   0.46      0   1880  364.8   1.06   0.60    0.0   1.10    0.64    0.64    0.49    0.29    0.18    0.10    0.06    0.02    0.00    0.00      607     168
 1980 160    69    54   11.9      5  3.245    887   1264    989    240   2151   4219    523   189.3  0.234   2068    222  0.000  0.000  0.000  0.000  0.000  0.000  0.000    3.11  47.84   0.49      0   2068  365.9   1.06   0.60    0.0   1.11    0.63    0.63    0.48    0.28    0.18    0.10    0.06    0.02    0.00    0.00      637     174
 1980 161    70    55   11.9      7  3.141    856   1246   1192    234   2102   4356    571   208.9  0.274   2254    222  0.000  0.000  0.000  0.000  0.000  0.000  0.000    3.00  52.91   0.52      0   2254  367.0   1.06   0.60    0.0   1.11    0.61    0.61    0.47    0.27    0.18    0.09    0.06    0.02    0.00    0.00      665     179
 1980 162    71    56   11.9      7  2.323    631   1171   1384    229   1802   4205    614   225.3  0.329   2403    206  0.000  0.000  0.000  0.000  0.000  0.000  0.000    2.83  57.57   0.57      0   2403  368.3   1.06   0.60    0.0   1.11    0.60    0.60    0.46    0.27    0.17    0.09    0.06    0.02    0.00    0.00      973     184
 1980 163    72    57   11.9      7  1.719    465   1114   1545    223   1579   4133    614   251.5  0.374   2554    194  0.000  0.000  0.000  0.000  0.000  0.000  0.000    2.66  60.48   0.62      0   2554  369.6   1.06   0.60    0.0   1.11    0.59    0.59    0.45    0.26    0.17    0.09    0.06    0.02    0.00    0.00     1178     189
 1980 164    73    58   11.9      7  1.275    344   1071   1671    219   1414   4085    614   272.0  0.409   2671    185  0.000  0.000  0.000  0.000  0.000  0.000  0.000    2.51  62.55   0.65      0   2671  370.9   1.06   0.60    0.0   1.11    0.58    0.58    0.44    0.26    0.16    0.09    0.05    0.02    0.00    0.00     1329     193
 1980 165    74    59   11.9      7  0.946    254   1038   1767    214   1292   4051    614   287.7  0.436   2759    185  0.000  0.000  0.000  0.000  0.000  0.000  0.000    2.39  64.04   0.68      0   2759  372.1   1.06   0.60    0.0   1.11    0.56    0.56    0.44    0.25    0.16    0.09    0.05    0.01    0.00    0.00     1441     197
 1980 166    75    60   11.9      7  0.703    188   1012   1844    209   1200   4029    614   300.3  0.458   2828    179  0.000  0.000  0.000  0.000  0.000  0.000  0.000    2.26  65.21   0.70      0   2828  373.3   1.06   0.60    0.0   1.11    0.55    0.55    0.43    0.25    0.16    0.08    0.05    0.01    0.00    0.00     1524     202
 1980 167    76    61   11.9      7  0.523    140    992   1901    205   1132   4010    614   309.5  0.474   2878    176  0.000  0.000  0.000  0.000  0.000  0.000  0.000    2.15  66.05   0.72      0   2878  374.2   1.06   0.60    0.0   1.11    0.54    0.54    0.42    0.24    0.15    0.08    0.05    0.01    0.00    0.00     1585     206
 1980 168    77    62   11.9      7  0.389    104    977   1942    200   1080   3992    614   316.1  0.486   2912    175  0.000  0.000  0.000  0.000  0.000  0.000  0.000    2.04  66.68   0.73      0   2912  375.2   1.06   0.60    0.0   1.11    0.53    0.53    0.41    0.24    0.15    0.08    0.05    0.01    0.00    0.00     1630     210
 1980 169    78    63   11.9      7  0.290     77    964   1968    196   1041   3973    614   320.4  0.495   2932    175  0.000  0.000  0.000  0.000  0.000  0.000  0.000    1.97  67.11   0.74      0   2932  376.4   1.06   0.60    0.0   1.11    0.52    0.52    0.40    0.23    0.15    0.08    0.05    0.01    0.00    0.00     1664     215
 1980 170    79    64   11.9      8  0.217     57    954   1982    192   1011   3954    614   322.8  0.501   2943    175  0.000  0.000  0.000  0.000  0.000  0.000  0.000    1.94  67.35   0.74      0   2943  377.5   1.06   0.60    0.0   1.11    0.51    0.51    0.39    0.23    0.15    0.08    0.05    0.01    0.00    0.00     1689     219

*DSSAT Cropping System Model Ver. 4.6.1.000 -release      JUL 11, 2017; 16:24:56
                                                                                
*RUN   2        : SIM                       CRGRO046 9\000009    1              
 MODEL          : CRGRO046 - Dry bean                                           
 EXPERIMENT     : 9\000009 BN PALMIRA_ANALISIS SENSIBILIDAD                     
 DATA PATH      : D:\B\0\00000                                                  
 TREATMENT  1   : SIM                       CRGRO046                            
  
!                                                                                                                                                                                                                                                    Root Dens. (cm/cm3) by soil depth (cm):
!                                                                                                                                                                                                                                                    0-5    5-15   15-25   25-35   35-50   50-65   65-80   80-99  99-122 122-209
@YEAR DOY   DAS   DAP   L#SD   GSTD   LAID   LWAD   SWAD   GWAD   RWAD   VWAD   CWAD   G#AD    GWGD   HIAD   PWAD   P#AD   WSPD   WSGD   NSTD  PST1A  PST2A   KSTD   EWSD    LN%D   SH%D   HIPD   PWDD   PWTD   SLAD   CHTD   CWID   NWAD   RDPD    RL1D    RL2D    RL3D    RL4D    RL5D    RL6D    RL7D    RL8D    RL9D   RL10D    SNW0C   SNW1C
 1981 106    15     0    0.0      0  0.000      0      0      0      0      0      0      0     0.0  0.000      0      0  0.000  0.000  0.000  0.000  0.000  0.000  0.000    0.00   0.00   0.00      0      0    0.0   0.00   0.00    0.0   0.00    0.00    0.00    0.00    0.00    0.00    0.00    0.00    0.00    0.00    0.00        0       0
 1981 107    16     1    0.0      0  0.000      0      0      0      0      0      0      0     0.0  0.000      0      0  0.000  0.000  0.000  0.000  0.000  0.000  0.000    0.00   0.00   0.00      0      0    0.0   0.00   0.00    0.0   0.00    0.00    0.00    0.00    0.00    0.00    0.00    0.00    0.00    0.00    0.00        0       0
 1981 108    17     2    0.0      0  0.000      0      0      0      0      0      0      0     0.0  0.000      0      0  0.000  0.000  0.000  0.000  0.000  0.000  0.000    0.00   0.00   0.00      0      0    0.0   0.00   0.00    0.0   0.00    0.00    0.00    0.00    0.00    0.00    0.00    0.00    0.00    0.00    0.00        0       0
 1981 109    18     3    0.0      0  0.000      0      0      0      0      0      0      0     0.0  0.000      0      0  0.000  0.000  0.000  0.000  0.000  0.000  0.000    0.00   0.00   0.00      0      0    0.0   0.00   0.00    0.0   0.00    0.00    0.00    0.00    0.00    0.00    0.00    0.00    0.00    0.00    0.00        0       0
 1981 110    19     4    0.0      0  0.000      0      0      0      0      0      0      0     0.0  0.000      0      0  0.000  0.000  0.000  0.000  0.000  0.000  0.000    0.00   0.00   0.00      0      0    0.0   0.00   0.00    0.0   0.00    0.00    0.00    0.00    0.00    0.00    0.00    0.00    0.00    0.00    0.00        0       0
 1981 111    20     5    0.2      0  0.079     31     13      0     43     44     44      0     0.0  0.000      0      0  0.000  0.000  0.000  0.000  0.000  0.000  0.000    3.84   0.00   0.00      0      0  256.6   0.04   0.03    0.0   0.27    0.15    0.15    0.15    0.00    0.00    0.00    0.00    0.00    0.00    0.00        0       1
 1981 112    21     6    0.5      0  0.082     31     14      0     51     45     45      0     0.0  0.000      0      0  0.000  0.000  0.653  0.000  0.000  0.000  0.000    3.78   0.00   0.00      0      0  261.6   0.05   0.03    0.0   0.29    0.18    0.18    0.18    0.01    0.00    0.00    0.00    0.00    0.00    0.00        0       2
 1981 113    22     7    0.8      0  0.084     32     15      0     59     46     46      0     0.0  0.000      0      0  0.000  0.000  0.742  0.000  0.000  0.000  0.000    3.73   0.00   0.00      0      0  265.1   0.06   0.04    0.0   0.31    0.21    0.21    0.20    0.02    0.00    0.00    0.00    0.00    0.00    0.00        0       3
 1981 114    23     8    1.1      0  0.087     32     16      0     67     48     48      0     0.0  0.000      0      0  0.000  0.000  0.576  0.000  0.000  0.000  0.000    3.71   0.00   0.00      0      0  270.8   0.07   0.04    0.0   0.33    0.24    0.24    0.22    0.03    0.00    0.00    0.00    0.00    0.00    0.00        0       4
 1981 115    24     9    1.3      0  0.091     33     18      0     74     51     51      0     0.0  0.000      0      0  0.000  0.000  0.498  0.000  0.000  0.000  0.000    3.68   0.00   0.00      0      0  276.8   0.08   0.05    0.0   0.36    0.26    0.26    0.23    0.04    0.00    0.00    0.00    0.00    0.00    0.00        1       6
 1981 116    25    10    1.7      0  0.096     34     21      0     80     54     54      0     0.0  0.000      0      0  0.000  0.000  0.437  0.000  0.000  0.000  0.000    3.66   0.00   0.00      0      0  285.0   0.09   0.06    0.0   0.38    0.28    0.28    0.25    0.06    0.00    0.00    0.00    0.00    0.00    0.00        1       7
 1981 117    26    11    1.9      0  0.107     35     23      0     84     59     59      0     0.0  0.000      0      0  0.000  0.000  0.290  0.000  0.000  0.000  0.000    3.64   0.00   0.00      0      0  303.6   0.10   0.07    0.0   0.40    0.29    0.29    0.25    0.06    0.00    0.00    0.00    0.00    0.00    0.00        2       9
 1981 118    27    12    2.2      0  0.129     41     26      0     84     67     67      0     0.0  0.000      0      0  0.000  0.000  0.000  0.000  0.000  0.000  0.000    3.64   0.00   0.00      0      0  314.7   0.11   0.07    0.0   0.42    0.29    0.29    0.25    0.06    0.00    0.00    0.00    0.00    0.00    0.00        2      10
 1981 119    28    13    2.5      0  0.157     47     31      0     85     78     78      0     0.0  0.000      0      0  0.000  0.000  0.000  0.000  0.000  0.000  0.000    3.58   0.00   0.00      0      0  332.8   0.12   0.08    0.0   0.44    0.30    0.30    0.25    0.07    0.01    0.00    0.00    0.00    0.00    0.00        2      12
 1981 120    29    14    2.8      0  0.183     53     37      0     87     90     90      0     0.0  0.000      0      0  0.000  0.000  0.000  0.000  0.000  0.000  0.000    3.55   0.00   0.00      0      0  347.2   0.12   0.09    0.0   0.46    0.30    0.30    0.26    0.07    0.01    0.00    0.00    0.00    0.00    0.00        3      14
 1981 121    30    15    3.1      0  0.236     64     40      0     87    104    104      0     0.0  0.000      0      0  0.000  0.000  0.000  0.000  0.000  0.000  0.000    3.54   0.00   0.00      0      0  367.4   0.13   0.10    0.0   0.48    0.30    0.30    0.26    0.07    0.01    0.00    0.00    0.00    0.00    0.00        4      16
 1981 122    31    16    3.4      0  0.290     76     46      0     87    122    122      0     0.0  0.000      0      0  0.000  0.000  0.000  0.000  0.000  0.000  0.000    3.53   0.00   0.00      0      0  379.3   0.14   0.11    0.0   0.50    0.30    0.30    0.26    0.07    0.01    0.00    0.00    0.00    0.00    0.00        4      17
 1981 123    32    17    3.7      0  0.343     88     54      0     89    142    142      0     0.0  0.000      0      0  0.000  0.000  0.000  0.000  0.000  0.000  0.000    3.52   0.00   0.00      0      0  388.7   0.15   0.13    0.0   0.52    0.30    0.30    0.26    0.08    0.02    0.00    0.00    0.00    0.00    0.00        5      19
 1981 124    33    18    3.9      0  0.394     99     66      0     91    165    165      0     0.0  0.000      0      0  0.000  0.000  0.000  0.000  0.000  0.000  0.000    3.51   0.00   0.00      0      0  397.7   0.17   0.15    0.0   0.54    0.31    0.31    0.26    0.08    0.02    0.00    0.00    0.00    0.00    0.00        6      21
 1981 125    34    19    4.2      0  0.445    110     80      0     94    190    190      0     0.0  0.000      0      0  0.000  0.000  0.000  0.000  0.000  0.000  0.000    3.51   0.00   0.00      0      0  403.5   0.18   0.17    0.0   0.56    0.31    0.31    0.26    0.09    0.02    0.00    0.00    0.00    0.00    0.00        7      23
 1981 126    35    20    4.5      0  0.548    131     87      0     94    218    218      0     0.0  0.000      0      0  0.000  0.000  0.000  0.000  0.000  0.000  0.000    3.53   0.00   0.00      0      0  417.2   0.19   0.19    0.0   0.57    0.31    0.31    0.26    0.09    0.03    0.00    0.00    0.00    0.00    0.00        8      25
 1981 127    36    21    4.8      0  0.670    159     96      0     95    254    254      0     0.0  0.000      0      0  0.000  0.000  0.000  0.000  0.000  0.000  0.000    3.55   0.00   0.00      0      0  421.8   0.21   0.21    0.0   0.59    0.32    0.32    0.26    0.09    0.03    0.00    0.00    0.00    0.00    0.00       10      27
 1981 128    37    22    5.0      0  0.767    181    108      0     98    289    289      0     0.0  0.000      0      0  0.000  0.000  0.000  0.000  0.000  0.000  0.000    3.55   0.00   0.00      0      0  423.7   0.22   0.23    0.0   0.61    0.32    0.32    0.27    0.09    0.03    0.00    0.00    0.00    0.00    0.00       11      28
 1981 129    38    23    5.3      0  0.893    210    126      0    101    336    336      0     0.0  0.000      0      0  0.000  0.000  0.000  0.000  0.000  0.000  0.000    3.56   0.00   0.00      0      0  424.4   0.24   0.24    0.0   0.62    0.33    0.33    0.27    0.10    0.04    0.01    0.00    0.00    0.00    0.00       13      30
 1981 130    39    24    5.6      0  1.045    244    146      0    105    389    389      0     0.0  0.000      0      0  0.000  0.000  0.000  0.000  0.000  0.000  0.000    3.56   0.00   0.00      0      0  429.2   0.26   0.26    0.0   0.64    0.34    0.34    0.28    0.10    0.04    0.01    0.00    0.00    0.00    0.00       16      32
 1981 131    40    25    5.9      0  1.215    281    169      0    110    450    450      0     0.0  0.000      0      0  0.000  0.000  0.000  0.000  0.000  0.000  0.000    3.57   0.00   0.00      0      0  432.4   0.28   0.29    0.0   0.66    0.35    0.35    0.29    0.11    0.05    0.01    0.00    0.00    0.00    0.00       18      35
 1981 132    41    26    6.2      0  1.407    324    196      0    116    520    520      0     0.0  0.000      0      0  0.000  0.000  0.000  0.000  0.000  0.000  0.000    3.57   0.00   0.00      0      0  434.7   0.31   0.31    0.0   0.67    0.36    0.36    0.30    0.12    0.05    0.02    0.00    0.00    0.00    0.00       22      37
 1981 133    42    27    6.5      0  1.611    368    227      0    123    595    595      0     0.0  0.000      0      0  0.000  0.000  0.000  0.000  0.000  0.000  0.000    3.59   0.00   0.00      0      0  437.2   0.33   0.33    0.0   0.69    0.38    0.38    0.31    0.13    0.06    0.02    0.00    0.00    0.00    0.00       29      39
 1981 134    43    28    6.8      0  1.802    409    260      0    131    669    669      0     0.0  0.000      0      0  0.000  0.000  0.000  0.000  0.000  0.000  0.000    3.64   0.00   0.00      0      0  440.4   0.36   0.35    0.0   0.71    0.40    0.40    0.32    0.14    0.07    0.03    0.00    0.00    0.00    0.00       46      42
 1981 135    44    29    7.1      0  1.980    452    298      0    139    749    749      0     0.0  0.000      0      0  0.000  0.000  0.000  0.000  0.000  0.000  0.000    3.70   0.00   0.00      0      0  438.6   0.39   0.37    0.0   0.72    0.42    0.42    0.34    0.15    0.08    0.03    0.00    0.00    0.00    0.00       66      45
 1981 136    45    30    7.3      0  2.181    488    335      0    148    823    823      0     0.0  0.000      0      0  0.000  0.000  0.000  0.000  0.000  0.000  0.000    3.75   0.00   0.00      0      0  447.1   0.42   0.39    0.0   0.74    0.44    0.44    0.35    0.16    0.08    0.04    0.01    0.00    0.00    0.00       90      48
 1981 137    46    31    7.6      0  2.372    528    381      0    158    909    909      0     0.0  0.000      0      0  0.000  0.000  0.000  0.000  0.000  0.000  0.000    3.81   0.00   0.00      0      0  448.9   0.45   0.41    0.0   0.76    0.46    0.46    0.37    0.17    0.09    0.04    0.01    0.00    0.00    0.00      117      51
 1981 138    47    32    7.9      0  2.549    568    432      0    168   1000   1000      0     0.0  0.000      0      0  0.000  0.000  0.000  0.000  0.000  0.000  0.000    3.87   0.00   0.00      0      0  448.7   0.48   0.44    0.0   0.77    0.48    0.48    0.38    0.19    0.10    0.05    0.01    0.00    0.00    0.00      150      54
 1981 139    48    33    8.2      1  2.758    617    492      0    180   1109   1109      0     0.0  0.000      0      0  0.000  0.000  0.000  0.000  0.000  0.000  0.000    3.88   0.00   0.00      0      0  446.7   0.51   0.45    0.0   0.79    0.51    0.51    0.40    0.20    0.11    0.05    0.02    0.00    0.00    0.00      173      57
 1981 140    49    34    8.5      1  2.971    672    558      0    192   1230   1230      0     0.0  0.000      0      0  0.000  0.000  0.000  0.000  0.000  0.000  0.000    3.88   0.00   0.00      0      0  442.0   0.54   0.47    0.0   0.81    0.54    0.54    0.42    0.22    0.12    0.06    0.02    0.00    0.00    0.00      193      61
 1981 141    50    35    8.8      1  3.179    727    630      0    204   1357   1357      0     0.0  0.000      0      0  0.000  0.000  0.000  0.000  0.000  0.000  0.000    3.87   0.00   0.00      0      0  437.3   0.57   0.49    0.0   0.82    0.56    0.56    0.44    0.23    0.14    0.07    0.03    0.00    0.00    0.00      213      66
 1981 142    51    36    9.1      3  3.369    784    708      0    217   1492   1492      0     0.0  0.000      0      0  0.000  0.000  0.000  0.000  0.000  0.000  0.000    3.87   0.00   0.00      0      0  429.7   0.60   0.51    0.0   0.84    0.59    0.59    0.47    0.25    0.15    0.07    0.04    0.00    0.00    0.00      235      70
 1981 143    52    37    9.4      3  3.535    835    784      0    229   1619   1624      0     0.0  0.000      6      6  0.000  0.000  0.000  0.000  0.000  0.000  0.000    3.86   0.00   0.00      0      6  423.4   0.64   0.53    0.0   0.86    0.62    0.62    0.48    0.26    0.16    0.08    0.04    0.00    0.00    0.00      257      74
 1981 144    53    38    9.7      3  3.671    883    859      0    240   1742   1765      0     0.0  0.000     22     20  0.000  0.000  0.000  0.000  0.000  0.000  0.000    3.86   0.00   0.01      0     22  415.6   0.67   0.55    0.0   0.87    0.64    0.64    0.50    0.27    0.17    0.09    0.05    0.00    0.00    0.00      278      79
 1981 145    54    39   10.0      3  3.777    926    931      0    250   1857   1908      0     0.0  0.000     51     34  0.000  0.000  0.000  0.000  0.000  0.000  0.000    3.84   0.00   0.03      0     51  408.0   0.70   0.56    0.0   0.89    0.67    0.67    0.52    0.29    0.18    0.09    0.05    0.01    0.00    0.00      298      84
 1981 146    55    40   10.3      3  3.859    963    999      0    258   1962   2054      0     0.0  0.000     92     48  0.000  0.000  0.000  0.000  0.000  0.000  0.000    3.83   0.00   0.04      0     92  400.7   0.74   0.57    0.0   0.90    0.68    0.68    0.53    0.30    0.18    0.10    0.05    0.01    0.00    0.00      317      89
 1981 147    56    41   10.6      3  3.920    997   1063      0    265   2060   2204      0     0.0  0.000    145     63  0.000  0.000  0.000  0.000  0.000  0.000  0.000    3.81   0.00   0.07      0    145  393.4   0.77   0.59    0.0   0.92    0.70    0.70    0.54    0.30    0.19    0.10    0.06    0.01    0.00    0.00      334      94
 1981 148    57    42   10.9      3  3.962   1027   1126      0    272   2154   2363      0     0.0  0.000    210     77  0.000  0.000  0.000  0.000  0.000  0.000  0.000    3.79   0.00   0.09      0    210  385.7   0.81   0.60    0.0   0.94    0.71    0.71    0.55    0.31    0.20    0.10    0.06    0.01    0.00    0.00      350     100
 1981 149    58    43   11.2      5  3.982   1050   1179      0    276   2228   2516      0     0.0  0.000    288     93  0.000  0.000  0.000  0.000  0.000  0.000  0.000    3.76   0.00   0.11      0    288  379.4   0.85   0.60    0.0   0.95    0.72    0.72    0.56    0.32    0.20    0.11    0.06    0.01    0.00    0.00      366     106
 1981 150    59    44   11.5      5  3.993   1070   1228      0    279   2298   2675     22     0.0  0.000    377    108  0.000  0.000  0.000  0.000  0.000  0.000  0.000    3.73   0.00   0.14      0    377  373.2   0.88   0.60    0.0   0.97    0.73    0.73    0.56    0.32    0.20    0.11    0.06    0.01    0.00    0.00      380     112
 1981 151    60    45   11.7      5  3.984   1083   1268      9    281   2351   2832     67    12.8  0.003    480    123  0.000  0.000  0.000  0.000  0.000  0.000  0.000    3.71   1.79   0.17      0    480  367.9   0.92   0.60    0.0   0.98    0.73    0.73    0.56    0.32    0.20    0.11    0.07    0.02    0.00    0.00      395     117
 1981 152    61    46   11.7      5  3.948   1081   1287     35    279   2368   2973    115    30.7  0.012    605    139  0.000  0.000  0.000  0.000  0.000  0.000  0.000    3.68   5.83   0.20      0    605  365.1   0.96   0.60    0.0   1.00    0.72    0.72    0.56    0.32    0.20    0.11    0.07    0.02    0.00    0.00      412     123
 1981 153    62    47   11.7      5  3.902   1075   1299     80    276   2374   3120    164    49.0  0.026    746    154  0.000  0.000  0.000  0.000  0.000  0.000  0.000    3.66  10.74   0.24      0    746  363.0   0.99   0.60    0.0   1.02    0.72    0.72    0.55    0.32    0.20    0.11    0.07    0.02    0.00    0.00      430     129
 1981 154    63    48   11.7      5  3.839   1063   1305    143    273   2368   3270    213    66.8  0.044    902    168  0.000  0.000  0.000  0.000  0.000  0.000  0.000    3.61  15.81   0.28      0    902  361.1   1.03   0.60    0.0   1.03    0.71    0.71    0.55    0.31    0.20    0.11    0.06    0.02    0.00    0.00      449     135
 1981 155    64    49   11.7      5  3.764   1042   1297    224    268   2339   3415    264    85.0  0.066   1076    183  0.000  0.000  0.000  0.000  0.000  0.000  0.000    3.55  20.84   0.32      0   1076  361.0   1.03   0.60    0.0   1.05    0.69    0.69    0.54    0.31    0.20    0.10    0.06    0.02    0.00    0.00      470     141
 1981 156    65    50   11.7      5  3.678   1016   1280    325    261   2295   3556    316   102.9  0.091   1260    198  0.000  0.000  0.000  0.000  0.000  0.000  0.000    3.49  25.79   0.35      0   1260  362.1   1.03   0.60    0.0   1.06    0.68    0.68    0.52    0.30    0.19    0.10    0.06    0.02    0.00    0.00      494     147
 1981 157    66    51   11.7      5  3.587    988   1262    446    255   2249   3694    367   121.4  0.121   1445    212  0.000  0.000  0.000  0.000  0.000  0.000  0.000    3.42  30.86   0.39      0   1445  363.2   1.03   0.60    0.0   1.08    0.66    0.66    0.51    0.30    0.19    0.10    0.06    0.02    0.00    0.00      518     152
 1981 158    67    52   11.7      5  3.493    959   1243    592    249   2202   3813    473   125.0  0.155   1610    222  0.000  0.000  0.000  0.000  0.000  0.000  0.000    3.35  36.75   0.42      0   1610  364.3   1.03   0.60    0.0   1.08    0.65    0.65    0.50    0.29    0.18    0.10    0.06    0.02    0.00    0.00      547     158
 1981 159    68    53   11.7      5  3.398    930   1225    779    244   2155   3951    473   164.6  0.197   1796    230  0.000  0.000  0.000  0.000  0.000  0.000  0.000    3.27  43.37   0.45      0   1796  365.5   1.03   0.60    0.0   1.08    0.64    0.64    0.49    0.28    0.18    0.10    0.06    0.02    0.00    0.00      568     163
 1981 160    69    54   11.7      5  3.305    901   1208    964    239   2109   4088    523   184.3  0.236   1979    234  0.000  0.000  0.000  0.000  0.000  0.000  0.000    3.18  48.71   0.48      0   1979  366.7   1.03   0.60    0.0   1.08    0.63    0.63    0.48    0.28    0.18    0.09    0.06    0.01    0.00    0.00      593     167
 1981 161    70    55   11.7      5  3.202    870   1189   1169    233   2059   4210    553   211.4  0.278   2150    230  0.000  0.000  0.000  0.000  0.000  0.000  0.000    3.08  54.34   0.51      0   2150  367.9   1.03   0.60    0.0   1.08    0.61    0.61    0.47    0.27    0.17    0.09    0.06    0.01    0.00    0.00      638     172
 1981 162    71    56   11.7      7  3.103    841   1173   1369    228   2014   4333    575   238.1  0.316   2319    221  0.000  0.000  0.000  0.000  0.000  0.000  0.000    2.98  59.04   0.54      0   2319  369.0   1.03   0.60    0.0   1.08    0.60    0.60    0.46    0.27    0.17    0.09    0.05    0.01    0.00    0.00      681     177
 1981 163    72    57   11.7      7  2.294    619   1099   1544    223   1719   4197    579   266.7  0.368   2478    207  0.000  0.000  0.000  0.000  0.000  0.000  0.000    2.80  62.29   0.59      0   2478  370.3   1.03   0.60    0.0   1.08    0.59    0.59    0.45    0.26    0.17    0.09    0.05    0.01    0.00    0.00      960     182
 1981 164    73    58   11.7      7  1.698    457   1044   1706    217   1501   4133    579   294.7  0.413   2632    193  0.000  0.000  0.000  0.000  0.000  0.000  0.000    2.63  64.81   0.64      0   2632  371.5   1.03   0.60    0.0   1.08    0.57    0.57    0.44    0.26    0.16    0.09    0.05    0.01    0.00    0.00     1162     187
 1981 165    74    59   11.7      7  1.258    338   1002   1833    212   1340   4090    579   316.7  0.448   2751    181  0.000  0.000  0.000  0.000  0.000  0.000  0.000    2.48  66.64   0.67      0   2751  372.8   1.03   0.60    0.0   1.08    0.56    0.56    0.43    0.25    0.16    0.08    0.05    0.01    0.00    0.00     1310     191
 1981 166    75    60   11.7      7  0.934    250    970   1930    207   1219   4060    579   333.5  0.475   2840    173  0.000  0.000  0.000  0.000  0.000  0.000  0.000    2.34  67.96   0.70      0   2840  374.0   1.03   0.60    0.0   1.08    0.55    0.55    0.42    0.24    0.16    0.08    0.05    0.01    0.00    0.00     1420     196
 1981 167    76    61   11.7      7  0.694    185    945   1998    203   1130   4031    579   345.1  0.496   2901    168  0.000  0.000  0.000  0.000  0.000  0.000  0.000    2.22  68.86   0.72      0   2901  375.2   1.03   0.60    0.0   1.08    0.54    0.54    0.42    0.24    0.15    0.08    0.05    0.01    0.00    0.00     1501     200
 1981 168    77    62   11.7      7  0.516    137    925   2052    199   1062   4011    579   354.5  0.512   2949    166  0.000  0.000  0.000  0.000  0.000  0.000  0.000    2.11  69.58   0.74      0   2949  376.4   1.03   0.60    0.0   1.08    0.53    0.53    0.41    0.24    0.15    0.08    0.05    0.01    0.00    0.00     1561     204
 1981 169    78    63   11.7      7  0.384    102    909   2089    194   1011   3991    579   360.9  0.523   2980    165  0.000  0.000  0.000  0.000  0.000  0.000  0.000    2.01  70.10   0.75      0   2980  377.6   1.03   0.60    0.0   1.08    0.52    0.52    0.40    0.23    0.15    0.08    0.05    0.01    0.00    0.00     1606     208
 1981 170    79    64   11.7      7  0.286     76    897   2114    190    973   3973    579   365.2  0.532   3000    165  0.000  0.000  0.000  0.000  0.000  0.000  0.000    1.94  70.46   0.76      0   3000  378.7   1.03   0.60    0.0   1.10    0.51    0.51    0.39    0.23    0.14    0.08    0.05    0.01    0.00    0.00     1639     212
 1981 171    80    65   11.7      8  0.214     56    888   2128    186    944   3955    579   367.6  0.538   3011    165  0.000  0.000  0.000  0.000  0.000  0.000  0.000    1.90  70.67   0.76      0   3011  379.8   1.03   0.60    0.0   1.10    0.50    0.50    0.38    0.22    0.14    0.07    0.05    0.01    0.00    0.00     1663     216

*DSSAT Cropping System Model Ver. 4.6.1.000 -release      JUL 11, 2017; 16:24:56
                                                                                
*RUN   3        : SIM                       CRGRO046 9\000009    1              
 MODEL          : CRGRO046 - Dry bean                                           
 EXPERIMENT     : 9\000009 BN PALMIRA_ANALISIS SENSIBILIDAD                     
 DATA PATH      : D:\B\0\00000                                                  
 TREATMENT  1   : SIM                       CRGRO046                            
  
!                                                                                                                                                                                                                                                    Root Dens. (cm/cm3) by soil depth (cm):
!                                                                                                                                                                                                                                                    0-5    5-15   15-25   25-35   35-50   50-65   65-80   80-99  99-122 122-209
@YEAR DOY   DAS   DAP   L#SD   GSTD   LAID   LWAD   SWAD   GWAD   RWAD   VWAD   CWAD   G#AD    GWGD   HIAD   PWAD   P#AD   WSPD   WSGD   NSTD  PST1A  PST2A   KSTD   EWSD    LN%D   SH%D   HIPD   PWDD   PWTD   SLAD   CHTD   CWID   NWAD   RDPD    RL1D    RL2D    RL3D    RL4D    RL5D    RL6D    RL7D    RL8D    RL9D   RL10D    SNW0C   SNW1C
 1982 106    15     0    0.0      0  0.000      0      0      0      0      0      0      0     0.0  0.000      0      0  0.000  0.000  0.000  0.000  0.000  0.000  0.000    0.00   0.00   0.00      0      0    0.0   0.00   0.00    0.0   0.00    0.00    0.00    0.00    0.00    0.00    0.00    0.00    0.00    0.00    0.00        0       0
 1982 107    16     1    0.0      0  0.000      0      0      0      0      0      0      0     0.0  0.000      0      0  0.000  0.000  0.000  0.000  0.000  0.000  0.000    0.00   0.00   0.00      0      0    0.0   0.00   0.00    0.0   0.00    0.00    0.00    0.00    0.00    0.00    0.00    0.00    0.00    0.00    0.00        0       0
 1982 108    17     2    0.0      0  0.000      0      0      0      0      0      0      0     0.0  0.000      0      0  0.000  0.000  0.000  0.000  0.000  0.000  0.000    0.00   0.00   0.00      0      0    0.0   0.00   0.00    0.0   0.00    0.00    0.00    0.00    0.00    0.00    0.00    0.00    0.00    0.00    0.00        0       0
 1982 109    18     3    0.0      0  0.000      0      0      0      0      0      0      0     0.0  0.000      0      0  0.000  0.000  0.000  0.000  0.000  0.000  0.000    0.00   0.00   0.00      0      0    0.0   0.00   0.00    0.0   0.00    0.00    0.00    0.00    0.00    0.00    0.00    0.00    0.00    0.00    0.00        0       0
 1982 110    19     4    0.0      0  0.000      0      0      0      0      0      0      0     0.0  0.000      0      0  0.000  0.000  0.000  0.000  0.000  0.000  0.000    0.00   0.00   0.00      0      0    0.0   0.00   0.00    0.0   0.00    0.00    0.00    0.00    0.00    0.00    0.00    0.00    0.00    0.00    0.00        0       0
 1982 111    20     5    0.2      0  0.079     31     13      0     43     44     44      0     0.0  0.000      0      0  0.000  0.000  0.000  0.000  0.000  0.000  0.000    3.84   0.00   0.00      0      0  256.8   0.04   0.03    0.0   0.27    0.15    0.15    0.15    0.00    0.00    0.00    0.00    0.00    0.00    0.00        0       1
 1982 112    21     6    0.5      0  0.082     31     14      0     51     45     45      0     0.0  0.000      0      0  0.000  0.000  0.664  0.000  0.000  0.000  0.000    3.78   0.00   0.00      0      0  261.1   0.05   0.03    0.0   0.29    0.18    0.18    0.18    0.01    0.00    0.00    0.00    0.00    0.00    0.00        0       2
 1982 113    22     7    0.8      0  0.084     32     15      0     59     46     46      0     0.0  0.000      0      0  0.000  0.000  0.741  0.000  0.000  0.000  0.000    3.73   0.00   0.00      0      0  264.7   0.06   0.04    0.0   0.31    0.21    0.21    0.20    0.02    0.00    0.00    0.00    0.00    0.00    0.00        0       3
 1982 114    23     8    1.1      0  0.088     32     16      0     67     49     49      0     0.0  0.000      0      0  0.000  0.000  0.543  0.000  0.000  0.000  0.000    3.71   0.00   0.00      0      0  270.2   0.07   0.04    0.0   0.33    0.24    0.24    0.22    0.03    0.00    0.00    0.00    0.00    0.00    0.00        0       4
 1982 115    24     9    1.4      0  0.092     33     18      0     74     51     51      0     0.0  0.000      0      0  0.000  0.000  0.485  0.000  0.000  0.000  0.000    3.69   0.00   0.00      0      0  275.5   0.08   0.05    0.0   0.36    0.26    0.26    0.23    0.04    0.00    0.00    0.00    0.00    0.00    0.00        1       6
 1982 116    25    10    1.7      0  0.097     34     21      0     80     55     55      0     0.0  0.000      0      0  0.000  0.000  0.401  0.000  0.000  0.000  0.000    3.66   0.00   0.00      0      0  283.4   0.09   0.06    0.0   0.38    0.28    0.28    0.25    0.05    0.00    0.00    0.00    0.00    0.00    0.00        1       7
 1982 117    26    11    2.0      0  0.112     38     25      0     83     63     63      0     0.0  0.000      0      0  0.000  0.000  0.118  0.000  0.000  0.000  0.000    3.65   0.00   0.00      0      0  296.9   0.10   0.07    0.0   0.40    0.29    0.29    0.25    0.06    0.00    0.00    0.00    0.00    0.00    0.00        2       9
 1982 118    27    12    2.2      0  0.134     42     28      0     84     70     70      0     0.0  0.000      0      0  0.000  0.000  0.058  0.000  0.000  0.000  0.000    3.60   0.00   0.00      0      0  321.5   0.11   0.07    0.0   0.42    0.29    0.29    0.25    0.06    0.00    0.00    0.00    0.00    0.00    0.00        2      10
 1982 119    28    13    2.5      0  0.160     47     33      0     85     80     80      0     0.0  0.000      0      0  0.000  0.000  0.000  0.000  0.000  0.000  0.000    3.57   0.00   0.00      0      0  339.5   0.12   0.08    0.0   0.44    0.30    0.30    0.25    0.07    0.01    0.00    0.00    0.00    0.00    0.00        2      12
 1982 120    29    14    2.8      0  0.189     54     39      0     87     93     93      0     0.0  0.000      0      0  0.000  0.000  0.000  0.000  0.000  0.000  0.000    3.53   0.00   0.00      0      0  351.7   0.13   0.09    0.0   0.46    0.30    0.30    0.26    0.07    0.01    0.00    0.00    0.00    0.00    0.00        3      14
 1982 121    30    15    3.1      0  0.243     66     42      0     87    108    108      0     0.0  0.000      0      0  0.000  0.000  0.000  0.000  0.000  0.000  0.000    3.53   0.00   0.00      0      0  369.7   0.14   0.10    0.0   0.48    0.30    0.30    0.25    0.07    0.01    0.00    0.00    0.00    0.00    0.00        4      16
 1982 122    31    16    3.4      0  0.298     77     48      0     87    126    126      0     0.0  0.000      0      0  0.000  0.000  0.000  0.000  0.000  0.000  0.000    3.52   0.00   0.00      0      0  384.9   0.15   0.11    0.0   0.50    0.30    0.30    0.26    0.07    0.01    0.00    0.00    0.00    0.00    0.00        4      18
 1982 123    32    17    3.7      0  0.352     90     57      0     89    147    147      0     0.0  0.000      0      0  0.000  0.000  0.000  0.000  0.000  0.000  0.000    3.51   0.00   0.00      0      0  393.1   0.16   0.13    0.0   0.52    0.30    0.30    0.26    0.08    0.02    0.00    0.00    0.00    0.00    0.00        5      19
 1982 124    33    18    4.0      0  0.407    101     69      0     91    171    171      0     0.0  0.000      0      0  0.000  0.000  0.000  0.000  0.000  0.000  0.000    3.51   0.00   0.00      0      0  400.9   0.17   0.15    0.0   0.54    0.31    0.31    0.26    0.08    0.02    0.00    0.00    0.00    0.00    0.00        6      21
 1982 125    34    19    4.3      0  0.464    114     84      0     94    197    197      0     0.0  0.000      0      0  0.000  0.000  0.000  0.000  0.000  0.000  0.000    3.50   0.00   0.00      0      0  409.0   0.18   0.17    0.0   0.56    0.31    0.31    0.26    0.09    0.02    0.00    0.00    0.00    0.00    0.00        7      23
 1982 126    35    20    4.6      0  0.572    138     92      0     94    229    229      0     0.0  0.000      0      0  0.000  0.000  0.000  0.000  0.000  0.000  0.000    3.53   0.00   0.00      0      0  414.7   0.20   0.20    0.0   0.58    0.31    0.31    0.26    0.09    0.03    0.00    0.00    0.00    0.00    0.00        9      25
 1982 127    36    21    4.9      0  0.702    166    101      0     95    267    267      0     0.0  0.000      0      0  0.000  0.000  0.000  0.000  0.000  0.000  0.000    3.55   0.00   0.00      0      0  422.0   0.22   0.22    0.0   0.60    0.32    0.32    0.26    0.09    0.03    0.00    0.00    0.00    0.00    0.00       10      27
 1982 128    37    22    5.2      0  0.831    194    117      0     99    311    311      0     0.0  0.000      0      0  0.000  0.000  0.000  0.000  0.000  0.000  0.000    3.55   0.00   0.00      0      0  428.0   0.23   0.24    0.0   0.62    0.32    0.32    0.27    0.09    0.03    0.01    0.00    0.00    0.00    0.00       12      29
 1982 129    38    23    5.5      0  0.976    226    136      0    102    361    361      0     0.0  0.000      0      0  0.000  0.000  0.000  0.000  0.000  0.000  0.000    3.56   0.00   0.00      0      0  432.6   0.26   0.26    0.0   0.63    0.33    0.33    0.27    0.10    0.04    0.01    0.00    0.00    0.00    0.00       14      31
 1982 130    39    24    5.8      0  1.135    261    158      0    107    419    419      0     0.0  0.000      0      0  0.000  0.000  0.000  0.000  0.000  0.000  0.000    3.56   0.00   0.00      0      0  434.7   0.28   0.29    0.0   0.65    0.34    0.34    0.28    0.11    0.04    0.01    0.00    0.00    0.00    0.00       17      34
 1982 131    40    25    6.1      0  1.320    302    183      0    112    485    485      0     0.0  0.000      0      0  0.000  0.000  0.000  0.000  0.000  0.000  0.000    3.57   0.00   0.00      0      0  437.6   0.30   0.31    0.0   0.67    0.35    0.35    0.29    0.11    0.05    0.02    0.00    0.00    0.00    0.00       20      36
 1982 132    41    26    6.4      0  1.521    347    213      0    119    560    560      0     0.0  0.000      0      0  0.000  0.000  0.000  0.000  0.000  0.000  0.000    3.57   0.00   0.00      0      0  438.5   0.33   0.33    0.0   0.68    0.37    0.37    0.30    0.12    0.06    0.02    0.00    0.00    0.00    0.00       24      38
 1982 133    42    27    6.7      0  1.715    386    244      0    126    631    631      0     0.0  0.000      0      0  0.000  0.000  0.000  0.000  0.000  0.000  0.000    3.63   0.00   0.00      0      0  444.0   0.36   0.35    0.0   0.70    0.39    0.39    0.31    0.13    0.06    0.02    0.00    0.00    0.00    0.00       40      41
 1982 134    43    28    7.0      0  1.906    427    281      0    134    708    708      0     0.0  0.000      0      0  0.000  0.000  0.000  0.000  0.000  0.000  0.000    3.69   0.00   0.00      0      0  446.2   0.39   0.38    0.0   0.72    0.40    0.40    0.33    0.14    0.07    0.03    0.00    0.00    0.00    0.00       60      44
 1982 135    44    29    7.3      0  2.093    468    321      0    143    790    790      0     0.0  0.000      0      0  0.000  0.000  0.000  0.000  0.000  0.000  0.000    3.75   0.00   0.00      0      0  446.9   0.42   0.40    0.0   0.74    0.43    0.43    0.34    0.16    0.08    0.03    0.01    0.00    0.00    0.00       83      47
 1982 136    45    30    7.6      0  2.255    509    367      0    153    876    876      0     0.0  0.000      0      0  0.000  0.000  0.000  0.000  0.000  0.000  0.000    3.81   0.00   0.00      0      0  443.1   0.45   0.42    0.0   0.75    0.45    0.45    0.36    0.17    0.09    0.04    0.01    0.00    0.00    0.00      112      50
 1982 137    46    31    7.9      0  2.426    548    417      0    164    966    966      0     0.0  0.000      0      0  0.000  0.000  0.000  0.000  0.000  0.000  0.000    3.87   0.00   0.00      0      0  442.3   0.48   0.44    0.0   0.77    0.47    0.47    0.38    0.18    0.10    0.05    0.01    0.00    0.00    0.00      144      53
 1982 138    47    32    8.2      0  2.652    594    473      0    175   1067   1067      0     0.0  0.000      0      0  0.000  0.000  0.000  0.000  0.000  0.000  0.000    3.89   0.00   0.00      0      0  446.6   0.51   0.46    0.0   0.79    0.50    0.50    0.39    0.19    0.11    0.05    0.02    0.00    0.00    0.00      167      57
 1982 139    48    33    8.5      1  2.874    645    537      0    186   1182   1182      0     0.0  0.000      0      0  0.000  0.000  0.000  0.000  0.000  0.000  0.000    3.88   0.00   0.00      0      0  445.9   0.54   0.48    0.0   0.80    0.52    0.52    0.41    0.21    0.12    0.06    0.02    0.00    0.00    0.00      185      60
 1982 140    49    34    8.8      1  3.082    696    606      0    198   1302   1302      0     0.0  0.000      0      0  0.000  0.000  0.000  0.000  0.000  0.000  0.000    3.88   0.00   0.00      0      0  443.0   0.57   0.50    0.0   0.82    0.55    0.55    0.43    0.22    0.13    0.06    0.03    0.00    0.00    0.00      204      64
 1982 141    50    35    9.1      1  3.276    741    672      0    209   1413   1413      0     0.0  0.000      0      0  0.000  0.000  0.000  0.000  0.000  0.000  0.000    3.87   0.00   0.00      0      0  442.0   0.60   0.52    0.0   0.83    0.57    0.57    0.45    0.24    0.14    0.07    0.03    0.00    0.00    0.00      223      68
 1982 142    51    36    9.3      3  3.464    794    749      0    221   1542   1542      0     0.0  0.000      0      0  0.000  0.000  0.000  0.000  0.000  0.000  0.000    3.86   0.00   0.00      0      0  436.4   0.63   0.53    0.0   0.85    0.60    0.60    0.47    0.25    0.15    0.08    0.04    0.00    0.00    0.00      242      72
 1982 143    52    37    9.6      3  3.618    847    832      0    234   1679   1683      0     0.0  0.000      4      5  0.000  0.000  0.000  0.000  0.000  0.000  0.000    3.85   0.00   0.00      0      4  427.0   0.67   0.55    0.0   0.87    0.63    0.63    0.49    0.27    0.16    0.08    0.04    0.00    0.00    0.00      262      76
 1982 144    53    38    9.9      3  3.738    896    914      0    245   1809   1829      0     0.0  0.000     19     18  0.000  0.000  0.000  0.000  0.000  0.000  0.000    3.85   0.00   0.01      0     19  417.3   0.70   0.56    0.0   0.88    0.66    0.66    0.51    0.28    0.17    0.09    0.05    0.00    0.00    0.00      285      81
 1982 145    54    39   10.2      3  3.827    928    977      0    254   1906   1953      0     0.0  0.000     47     33  0.000  0.000  0.000  0.000  0.000  0.000  0.000    3.83   0.00   0.02      0     47  412.2   0.74   0.58    0.0   0.90    0.67    0.67    0.52    0.29    0.18    0.09    0.05    0.01    0.00    0.00      305      86
 1982 146    55    40   10.5      3  3.913    969   1052      0    262   2021   2107      0     0.0  0.000     86     45  0.000  0.000  0.000  0.000  0.000  0.000  0.000    3.82   0.00   0.04      0     86  403.7   0.77   0.59    0.0   0.91    0.69    0.69    0.54    0.30    0.19    0.10    0.06    0.01    0.00    0.00      321      91
 1982 147    56    41   10.8      3  3.963    998   1114      0    269   2112   2250      0     0.0  0.000    137     60  0.000  0.000  0.000  0.000  0.000  0.000  0.000    3.80   0.00   0.06      0    137  397.0   0.81   0.60    0.0   0.93    0.71    0.71    0.55    0.31    0.19    0.10    0.06    0.01    0.00    0.00      340      97
 1982 148    57    42   11.0      3  4.003   1027   1175      0    275   2202   2403      0     0.0  0.000    201     75  0.000  0.000  0.000  0.000  0.000  0.000  0.000    3.77   0.00   0.08      0    201  389.8   0.84   0.60    0.0   0.94    0.72    0.72    0.56    0.31    0.20    0.10    0.06    0.01    0.00    0.00      354     102
 1982 149    58    43   11.3      5  4.023   1051   1232      0    279   2283   2560      0     0.0  0.000    277     90  0.000  0.000  0.000  0.000  0.000  0.000  0.000    3.75   0.00   0.11      0    277  382.8   0.88   0.60    0.0   0.96    0.73    0.73    0.56    0.32    0.20    0.11    0.06    0.01    0.00    0.00      368     108
 1982 150    59    44   11.6      5  4.030   1072   1285      0    283   2357   2721     16     0.0  0.000    364    106  0.000  0.000  0.000  0.000  0.000  0.000  0.000    3.72   0.00   0.13      0    364  376.0   0.92   0.60    0.0   0.98    0.73    0.73    0.57    0.32    0.21    0.11    0.07    0.02    0.00    0.00      382     114
 1982 151    60    45   11.9      5  4.017   1085   1330      6    285   2415   2878     62     9.6  0.002    462    121  0.000  0.000  0.000  0.000  0.000  0.000  0.000    3.69   1.29   0.16      0    462  370.1   0.95   0.60    0.0   0.99    0.74    0.74    0.57    0.33    0.21    0.11    0.07    0.02    0.00    0.00      398     120
 1982 152    61    46   11.9      5  3.985   1090   1361     30    284   2451   3030    111    26.9  0.010    579    136  0.000  0.000  0.000  0.000  0.000  0.000  0.000    3.66   5.15   0.19      0    579  365.7   0.99   0.60    0.0   1.01    0.73    0.73    0.57    0.33    0.21    0.11    0.07    0.02    0.00    0.00      416     126
 1982 153    62    47   11.9      5  3.937   1086   1381     72    283   2467   3183    155    46.9  0.023    715    151  0.000  0.000  0.000  0.000  0.000  0.000  0.000    3.64  10.14   0.22      0    715  362.4   1.02   0.60    0.0   1.03    0.73    0.73    0.56    0.33    0.21    0.11    0.07    0.02    0.00    0.00      436     132
 1982 154    63    48   11.9      5  3.865   1071   1383    132    279   2453   3319    254    52.1  0.040    865    166  0.000  0.000  0.000  0.000  0.000  0.000  0.000    3.58  15.27   0.26      0    865  361.0   1.06   0.60    0.0   1.04    0.72    0.72    0.55    0.32    0.20    0.11    0.07    0.02    0.00    0.00      461     138
 1982 155    64    49   11.9      5  3.781   1044   1364    233    272   2409   3445    305    76.4  0.068   1036    180  0.000  0.000  0.000  0.000  0.000  0.000  0.000    3.53  22.47   0.30      0   1036  362.1   1.06   0.60    0.0   1.04    0.70    0.70    0.54    0.31    0.20    0.11    0.07    0.02    0.00    0.00      483     144
 1982 156    65    50   11.9      5  3.692   1016   1345    352    266   2362   3583    357    98.5  0.098   1221    194  0.000  0.000  0.000  0.000  0.000  0.000  0.000    3.46  28.81   0.34      0   1221  363.2   1.06   0.60    0.0   1.04    0.69    0.69    0.53    0.31    0.20    0.10    0.06    0.02    0.00    0.00      507     150
 1982 157    66    51   11.9      5  3.599    988   1326    491    259   2314   3723    410   119.7  0.132   1409    205  0.000  0.000  0.000  0.000  0.000  0.000  0.000    3.39  34.83   0.38      0   1409  364.4   1.06   0.60    0.0   1.04    0.67    0.67    0.52    0.30    0.19    0.10    0.06    0.02    0.00    0.00      532     156
 1982 158    67    52   11.9      5  3.500    958   1309    645    254   2267   3868    463   139.4  0.167   1601    213  0.000  0.000  0.000  0.000  0.000  0.000  0.000    3.31  40.28   0.41      0   1601  365.2   1.06   0.60    0.0   1.06    0.66    0.66    0.51    0.29    0.19    0.10    0.06    0.02    0.00    0.00      558     161
 1982 159    68    53   11.9      5  3.395    926   1288    823    247   2215   4009    514   160.0  0.205   1794    218  0.000  0.000  0.000  0.000  0.000  0.000  0.000    3.22  45.85   0.45      0   1794  366.5   1.06   0.60    0.0   1.06    0.65    0.65    0.50    0.29    0.18    0.10    0.06    0.02    0.00    0.00      585     167
 1982 160    69    54   11.9      5  3.284    893   1267   1021    241   2160   4132    550   185.7  0.247   1972    216  0.000  0.000  0.000  0.000  0.000  0.000  0.000    3.12  51.76   0.48      0   1972  367.9   1.06   0.60    0.0   1.06    0.63    0.63    0.49    0.28    0.18    0.10    0.06    0.02    0.00    0.00      628     172
 1982 161    70    55   11.9      7  3.181    862   1249   1230    236   2111   4280    550   223.4  0.287   2169    201  0.000  0.000  0.000  0.000  0.000  0.000  0.000    3.01  56.69   0.51      0   2169  369.0   1.06   0.60    0.0   1.06    0.62    0.62    0.48    0.28    0.18    0.09    0.06    0.02    0.00    0.00      652     178
 1982 162    71    56   11.9      7  2.351    635   1174   1432    230   1809   4170    550   260.2  0.343   2361    187  0.000  0.000  0.000  0.000  0.000  0.000  0.000    2.83  60.64   0.57      0   2361  370.2   1.06   0.60    0.0   1.06    0.60    0.60    0.47    0.27    0.17    0.09    0.06    0.02    0.00    0.00      932     183
 1982 163    72    57   11.9      7  1.740    468   1116   1595    225   1584   4099    550   289.8  0.389   2515    175  0.000  0.000  0.000  0.000  0.000  0.000  0.000    2.66  63.42   0.61      0   2515  371.5   1.06   0.60    0.0   1.06    0.59    0.59    0.46    0.26    0.17    0.09    0.06    0.02    0.00    0.00     1139     188
 1982 164    73    58   11.9      7  1.289    346   1073   1728    220   1419   4058    550   313.9  0.426   2639    166  0.000  0.000  0.000  0.000  0.000  0.000  0.000    2.50  65.46   0.65      0   2639  372.7   1.06   0.60    0.0   1.06    0.58    0.58    0.45    0.26    0.17    0.09    0.05    0.02    0.00    0.00     1291     192
 1982 165    74    59   11.9      7  0.956    256   1039   1827    214   1294   4025    550   331.9  0.454   2731    161  0.000  0.000  0.000  0.000  0.000  0.000  0.000    2.36  66.91   0.68      0   2731  374.0   1.06   0.60    0.0   1.06    0.57    0.57    0.44    0.25    0.16    0.09    0.05    0.01    0.00    0.00     1403     197
 1982 166    75    60   11.9      7  0.710    189   1013   1904    210   1202   4003    550   345.9  0.476   2800    158  0.000  0.000  0.000  0.000  0.000  0.000  0.000    2.24  67.99   0.70      0   2800  375.1   1.06   0.60    0.0   1.06    0.55    0.55    0.43    0.25    0.16    0.08    0.05    0.01    0.00    0.00     1486     202
 1982 167    76    61   11.9      7  0.528    140    992   1960    205   1132   3982    550   356.1  0.492   2850    158  0.000  0.000  0.000  0.000  0.000  0.000  0.000    2.12  68.78   0.72      0   2850  376.4   1.06   0.60    0.0   1.06    0.54    0.54    0.42    0.24    0.15    0.08    0.05    0.01    0.00    0.00     1548     206
 1982 168    77    62   11.9      7  0.393    104    975   2001    200   1079   3963    550   363.5  0.505   2884    157  0.000  0.000  0.000  0.000  0.000  0.000  0.000    2.02  69.38   0.73      0   2884  377.7   1.06   0.60    0.0   1.06    0.53    0.53    0.41    0.24    0.15    0.08    0.05    0.01    0.00    0.00     1593     210
 1982 169    78    63   11.9      7  0.293     77    962   2027    196   1040   3945    550   368.2  0.514   2905    157  0.000  0.000  0.000  0.000  0.000  0.000  0.000    1.94  69.77   0.74      0   2905  378.7   1.06   0.60    0.0   1.07    0.52    0.52    0.40    0.23    0.15    0.08    0.05    0.01    0.00    0.00     1627     215
 1982 170    79    64   11.9      8  0.219     58    952   2042    192   1010   3927    550   371.0  0.520   2917    157  0.000  0.000  0.000  0.000  0.000  0.000  0.000    1.90  70.01   0.74      0   2917  379.8   1.06   0.60    0.0   1.07    0.51    0.51    0.39    0.23    0.15    0.08    0.05    0.01    0.00    0.00     1652     219

*DSSAT Cropping System Model Ver. 4.6.1.000 -release      JUL 11, 2017; 16:24:56
                                                                                
*RUN   4        : SIM                       CRGRO046 9\000009    1              
 MODEL          : CRGRO046 - Dry bean                                           
 EXPERIMENT     : 9\000009 BN PALMIRA_ANALISIS SENSIBILIDAD                     
 DATA PATH      : D:\B\0\00000                                                  
 TREATMENT  1   : SIM                       CRGRO046                            
  
!                                                                                                                                                                                                                                                    Root Dens. (cm/cm3) by soil depth (cm):
!                                                                                                                                                                                                                                                    0-5    5-15   15-25   25-35   35-50   50-65   65-80   80-99  99-122 122-209
@YEAR DOY   DAS   DAP   L#SD   GSTD   LAID   LWAD   SWAD   GWAD   RWAD   VWAD   CWAD   G#AD    GWGD   HIAD   PWAD   P#AD   WSPD   WSGD   NSTD  PST1A  PST2A   KSTD   EWSD    LN%D   SH%D   HIPD   PWDD   PWTD   SLAD   CHTD   CWID   NWAD   RDPD    RL1D    RL2D    RL3D    RL4D    RL5D    RL6D    RL7D    RL8D    RL9D   RL10D    SNW0C   SNW1C
 1983 106    15     0    0.0      0  0.000      0      0      0      0      0      0      0     0.0  0.000      0      0  0.000  0.000  0.000  0.000  0.000  0.000  0.000    0.00   0.00   0.00      0      0    0.0   0.00   0.00    0.0   0.00    0.00    0.00    0.00    0.00    0.00    0.00    0.00    0.00    0.00    0.00        0       0
 1983 107    16     1    0.0      0  0.000      0      0      0      0      0      0      0     0.0  0.000      0      0  0.000  0.000  0.000  0.000  0.000  0.000  0.000    0.00   0.00   0.00      0      0    0.0   0.00   0.00    0.0   0.00    0.00    0.00    0.00    0.00    0.00    0.00    0.00    0.00    0.00    0.00        0       0
 1983 108    17     2    0.0      0  0.000      0      0      0      0      0      0      0     0.0  0.000      0      0  0.000  0.000  0.000  0.000  0.000  0.000  0.000    0.00   0.00   0.00      0      0    0.0   0.00   0.00    0.0   0.00    0.00    0.00    0.00    0.00    0.00    0.00    0.00    0.00    0.00    0.00        0       0
 1983 109    18     3    0.0      0  0.000      0      0      0      0      0      0      0     0.0  0.000      0      0  0.000  0.000  0.000  0.000  0.000  0.000  0.000    0.00   0.00   0.00      0      0    0.0   0.00   0.00    0.0   0.00    0.00    0.00    0.00    0.00    0.00    0.00    0.00    0.00    0.00    0.00        0       0
 1983 110    19     4    0.0      0  0.000      0      0      0      0      0      0      0     0.0  0.000      0      0  0.000  0.000  0.000  0.000  0.000  0.000  0.000    0.00   0.00   0.00      0      0    0.0   0.00   0.00    0.0   0.00    0.00    0.00    0.00    0.00    0.00    0.00    0.00    0.00    0.00    0.00        0       0
 1983 111    20     5    0.2      0  0.079     31     13      0     43     44     44      0     0.0  0.000      0      0  0.000  0.000  0.000  0.000  0.000  0.000  0.000    3.84   0.00   0.00      0      0  256.7   0.04   0.03    0.0   0.27    0.15    0.15    0.15    0.00    0.00    0.00    0.00    0.00    0.00    0.00        0       1
 1983 112    21     6    0.5      0  0.082     31     14      0     51     45     45      0     0.0  0.000      0      0  0.000  0.000  0.654  0.000  0.000  0.000  0.000    3.78   0.00   0.00      0      0  261.7   0.05   0.03    0.0   0.29    0.18    0.18    0.18    0.01    0.00    0.00    0.00    0.00    0.00    0.00        0       2
 1983 113    22     7    0.8      0  0.084     32     15      0     59     46     46      0     0.0  0.000      0      0  0.000  0.000  0.740  0.000  0.000  0.000  0.000    3.72   0.00   0.00      0      0  265.3   0.06   0.04    0.0   0.31    0.21    0.21    0.20    0.02    0.00    0.00    0.00    0.00    0.00    0.00        0       3
 1983 114    23     8    1.1      0  0.087     32     16      0     67     48     48      0     0.0  0.000      0      0  0.000  0.000  0.595  0.000  0.000  0.000  0.000    3.70   0.00   0.00      0      0  271.2   0.07   0.04    0.0   0.33    0.24    0.24    0.22    0.03    0.00    0.00    0.00    0.00    0.00    0.00        0       4
 1983 115    24     9    1.4      0  0.091     33     18      0     74     51     51      0     0.0  0.000      0      0  0.000  0.000  0.487  0.000  0.000  0.000  0.000    3.68   0.00   0.00      0      0  277.5   0.08   0.05    0.0   0.36    0.26    0.26    0.23    0.04    0.00    0.00    0.00    0.00    0.00    0.00        1       6
 1983 116    25    10    1.7      0  0.096     34     21      0     80     55     55      0     0.0  0.000      0      0  0.000  0.000  0.375  0.000  0.000  0.000  0.000    3.66   0.00   0.00      0      0  285.2   0.09   0.06    0.0   0.38    0.28    0.28    0.24    0.05    0.00    0.00    0.00    0.00    0.00    0.00        1       7
 1983 117    26    11    2.0      0  0.112     37     25      0     83     62     62      0     0.0  0.000      0      0  0.000  0.000  0.154  0.000  0.000  0.000  0.000    3.64   0.00   0.00      0      0  301.1   0.10   0.07    0.0   0.40    0.29    0.29    0.25    0.06    0.00    0.00    0.00    0.00    0.00    0.00        2       9
 1983 118    27    12    2.3      0  0.138     42     28      0     84     71     71      0     0.0  0.000      0      0  0.000  0.000  0.040  0.000  0.000  0.000  0.000    3.59   0.00   0.00      0      0  326.2   0.11   0.07    0.0   0.42    0.29    0.29    0.25    0.06    0.00    0.00    0.00    0.00    0.00    0.00        2      11
 1983 119    28    13    2.6      0  0.165     48     33      0     85     81     81      0     0.0  0.000      0      0  0.000  0.000  0.000  0.000  0.000  0.000  0.000    3.56   0.00   0.00      0      0  342.8   0.12   0.08    0.0   0.44    0.30    0.30    0.25    0.07    0.01    0.00    0.00    0.00    0.00    0.00        2      12
 1983 120    29    14    2.9      0  0.197     55     39      0     87     94     94      0     0.0  0.000      0      0  0.000  0.000  0.000  0.000  0.000  0.000  0.000    3.53   0.00   0.00      0      0  358.2   0.13   0.09    0.0   0.46    0.30    0.30    0.26    0.07    0.01    0.00    0.00    0.00    0.00    0.00        3      14
 1983 121    30    15    3.2      0  0.253     67     42      0     87    110    110      0     0.0  0.000      0      0  0.000  0.000  0.000  0.000  0.000  0.000  0.000    3.52   0.00   0.00      0      0  374.7   0.14   0.10    0.0   0.48    0.30    0.30    0.25    0.07    0.01    0.00    0.00    0.00    0.00    0.00        4      16
 1983 122    31    16    3.5      0  0.309     80     49      0     87    129    129      0     0.0  0.000      0      0  0.000  0.000  0.000  0.000  0.000  0.000  0.000    3.51   0.00   0.00      0      0  387.9   0.15   0.12    0.0   0.50    0.30    0.30    0.26    0.07    0.01    0.00    0.00    0.00    0.00    0.00        4      18
 1983 123    32    17    3.8      0  0.364     92     58      0     89    150    150      0     0.0  0.000      0      0  0.000  0.000  0.000  0.000  0.000  0.000  0.000    3.51   0.00   0.00      0      0  395.5   0.16   0.14    0.0   0.52    0.30    0.30    0.26    0.08    0.02    0.00    0.00    0.00    0.00    0.00        5      20
 1983 124    33    18    4.1      0  0.419    103     71      0     91    174    174      0     0.0  0.000      0      0  0.000  0.000  0.000  0.000  0.000  0.000  0.000    3.50   0.00   0.00      0      0  406.0   0.17   0.16    0.0   0.54    0.31    0.31    0.26    0.08    0.02    0.00    0.00    0.00    0.00    0.00        6      22
 1983 125    34    19    4.4      0  0.490    119     83      0     93    203    203      0     0.0  0.000      0      0  0.000  0.000  0.000  0.000  0.000  0.000  0.000    3.51   0.00   0.00      0      0  410.4   0.19   0.18    0.0   0.56    0.31    0.31    0.26    0.09    0.02    0.00    0.00    0.00    0.00    0.00        8      24
 1983 126    35    20    4.7      0  0.605    145     92      0     94    237    237      0     0.0  0.000      0      0  0.000  0.000  0.000  0.000  0.000  0.000  0.000    3.53   0.00   0.00      0      0  416.8   0.20   0.20    0.0   0.58    0.31    0.31    0.26    0.09    0.03    0.00    0.00    0.00    0.00    0.00        9      26
 1983 127    36    21    5.0      0  0.743    174    102      0     96    276    276      0     0.0  0.000      0      0  0.000  0.000  0.000  0.000  0.000  0.000  0.000    3.55   0.00   0.00      0      0  426.2   0.22   0.22    0.0   0.60    0.32    0.32    0.26    0.09    0.03    0.00    0.00    0.00    0.00    0.00       11      28
[...]
 2011 112    21     6    0.5      0  0.082     31     14      0     51     45     45      0     0.0  0.000      0      0  0.000  0.000  0.674  0.000  0.000  0.000  0.000    3.78   0.00   0.00      0      0  261.2   0.05   0.03    0.0   0.29    0.19    0.19    0.18    0.01    0.00    0.00    0.00    0.00    0.00    0.00        0       2
 2011 113    22     7    0.8      0  0.084     32     15      0     60     47     47      0     0.0  0.000      0      0  0.000  0.000  0.703  0.000  0.000  0.000  0.000    3.73   0.00   0.00      0      0  264.8   0.06   0.04    0.0   0.31    0.22    0.22    0.20    0.02    0.00    0.00    0.00    0.00    0.00    0.00        0       3
 2011 114    23     8    1.1      0  0.088     32     16      0     68     49     49      0     0.0  0.000      0      0  0.000  0.000  0.555  0.000  0.000  0.000  0.000    3.71   0.00   0.00      0      0  270.3   0.07   0.04    0.0   0.33    0.24    0.24    0.22    0.03    0.00    0.00    0.00    0.00    0.00    0.00        0       4
 2011 115    24     9    1.4      0  0.092     33     19      0     76     52     52      0     0.0  0.000      0      0  0.000  0.000  0.476  0.000  0.000  0.000  0.000    3.68   0.00   0.00      0      0  277.1   0.08   0.05    0.0   0.36    0.27    0.27    0.24    0.05    0.00    0.00    0.00    0.00    0.00    0.00        1       6
 2011 116    25    10    1.7      0  0.098     34     22      0     82     57     57      0     0.0  0.000      0      0  0.000  0.000  0.298  0.000  0.000  0.000  0.000    3.66   0.00   0.00      0      0  284.0   0.09   0.06    0.0   0.38    0.29    0.29    0.25    0.06    0.00    0.00    0.00    0.00    0.00    0.00        1       7
 2011 117    26    11    2.0      0  0.113     38     27      0     85     64     64      0     0.0  0.000      0      0  0.000  0.000  0.146  0.000  0.000  0.000  0.000    3.63   0.00   0.00      0      0  299.9   0.10   0.07    0.0   0.40    0.30    0.30    0.26    0.06    0.00    0.00    0.00    0.00    0.00    0.00        2       9
 2011 118    27    12    2.3      0  0.140     44     31      0     86     74     74      0     0.0  0.000      0      0  0.000  0.000  0.000  0.000  0.000  0.000  0.000    3.58   0.00   0.00      0      0  320.4   0.11   0.07    0.0   0.42    0.30    0.30    0.26    0.07    0.00    0.00    0.00    0.00    0.00    0.00        2      11
 2011 119    28    13    2.6      0  0.167     50     37      0     88     86     86      0     0.0  0.000      0      0  0.000  0.000  0.000  0.000  0.000  0.000  0.000    3.54   0.00   0.00      0      0  336.3   0.12   0.08    0.0   0.44    0.30    0.30    0.26    0.07    0.01    0.00    0.00    0.00    0.00    0.00        3      13
 2011 120    29    14    2.9      0  0.201     57     43      0     89    100    100      0     0.0  0.000      0      0  0.000  0.000  0.000  0.000  0.000  0.000  0.000    3.52   0.00   0.00      0      0  352.3   0.13   0.09    0.0   0.46    0.31    0.31    0.26    0.07    0.01    0.00    0.00    0.00    0.00    0.00        3      15
 2011 121    30    15    3.2      0  0.259     70     47      0     89    117    117      0     0.0  0.000      0      0  0.000  0.000  0.000  0.000  0.000  0.000  0.000    3.52   0.00   0.00      0      0  369.2   0.14   0.10    0.0   0.48    0.31    0.31    0.26    0.08    0.01    0.00    0.00    0.00    0.00    0.00        4      16
 2011 122    31    16    3.5      0  0.314     83     55      0     91    138    138      0     0.0  0.000      0      0  0.000  0.000  0.000  0.000  0.000  0.000  0.000    3.52   0.00   0.00      0      0  377.3   0.15   0.12    0.0   0.50    0.31    0.31    0.26    0.08    0.01    0.00    0.00    0.00    0.00    0.00        5      18
 2011 123    32    17    3.8      0  0.369     93     66      0     93    159    159      0     0.0  0.000      0      0  0.000  0.000  0.000  0.000  0.000  0.000  0.000    3.50   0.00   0.00      0      0  395.9   0.16   0.14    0.0   0.53    0.31    0.31    0.27    0.08    0.02    0.00    0.00    0.00    0.00    0.00        5      20
 2011 124    33    18    4.1      0  0.423    105     80      0     96    185    185      0     0.0  0.000      0      0  0.000  0.000  0.000  0.000  0.000  0.000  0.000    3.50   0.00   0.00      0      0  403.4   0.17   0.16    0.0   0.55    0.32    0.32    0.27    0.09    0.02    0.00    0.00    0.00    0.00    0.00        7      22
 2011 125    34    19    4.4      0  0.498    122     94      0     98    215    215      0     0.0  0.000      0      0  0.000  0.000  0.000  0.000  0.000  0.000  0.000    3.51   0.00   0.00      0      0  409.2   0.19   0.18    0.0   0.56    0.33    0.33    0.27    0.09    0.03    0.00    0.00    0.00    0.00    0.00        8      24
 2011 126    35    20    4.7      0  0.619    150    103      0     99    252    252      0     0.0  0.000      0      0  0.000  0.000  0.000  0.000  0.000  0.000  0.000    3.54   0.00   0.00      0      0  413.4   0.20   0.20    0.0   0.58    0.33    0.33    0.27    0.09    0.03    0.00    0.00    0.00    0.00    0.00        9      27
 2011 127    36    21    5.0      0  0.758    180    116      0    101    296    296      0     0.0  0.000      0      0  0.000  0.000  0.000  0.000  0.000  0.000  0.000    3.55   0.00   0.00      0      0  422.0   0.22   0.23    0.0   0.60    0.33    0.33    0.28    0.10    0.03    0.00    0.00    0.00    0.00    0.00       11      29
 2011 128    37    22    5.3      0  0.902    212    135      0    105    346    346      0     0.0  0.000      0      0  0.000  0.000  0.000  0.000  0.000  0.000  0.000    3.56   0.00   0.00      0      0  426.1   0.24   0.25    0.0   0.62    0.34    0.34    0.28    0.10    0.04    0.01    0.00    0.00    0.00    0.00       13      31
 2011 129    38    23    5.6      0  1.067    249    157      0    109    406    406      0     0.0  0.000      0      0  0.000  0.000  0.000  0.000  0.000  0.000  0.000    3.57   0.00   0.00      0      0  429.0   0.26   0.27    0.0   0.64    0.35    0.35    0.29    0.11    0.04    0.01    0.00    0.00    0.00    0.00       15      33
 2011 130    39    24    5.9      0  1.245    291    183      0    115    474    474      0     0.0  0.000      0      0  0.000  0.000  0.000  0.000  0.000  0.000  0.000    3.57   0.00   0.00      0      0  428.1   0.29   0.29    0.0   0.66    0.36    0.36    0.30    0.12    0.05    0.01    0.00    0.00    0.00    0.00       18      36
 2011 131    40    25    6.2      0  1.464    337    213      0    121    550    550      0     0.0  0.000      0      0  0.000  0.000  0.000  0.000  0.000  0.000  0.000    3.57   0.00   0.00      0      0  434.1   0.32   0.32    0.0   0.68    0.38    0.38    0.31    0.13    0.06    0.02    0.00    0.00    0.00    0.00       22      38
 2011 132    41    26    6.5      0  1.682    384    246      0    129    631    631      0     0.0  0.000      0      0  0.000  0.000  0.000  0.000  0.000  0.000  0.000    3.61   0.00   0.00      0      0  437.6   0.35   0.34    0.0   0.69    0.40    0.40    0.32    0.14    0.06    0.02    0.00    0.00    0.00    0.00       33      41
 2011 133    42    27    6.8      0  1.892    429    283      0    138    712    712      0     0.0  0.000      0      0  0.000  0.000  0.000  0.000  0.000  0.000  0.000    3.67   0.00   0.00      0      0  441.2   0.38   0.36    0.0   0.71    0.42    0.42    0.34    0.15    0.07    0.03    0.00    0.00    0.00    0.00       51      44
 2011 134    43    28    7.1      0  2.108    471    321      0    146    792    792      0     0.0  0.000      0      0  0.000  0.000  0.000  0.000  0.000  0.000  0.000    3.72   0.00   0.00      0      0  448.0   0.41   0.39    0.0   0.73    0.44    0.44    0.35    0.16    0.08    0.03    0.01    0.00    0.00    0.00       72      46
 2011 135    44    29    7.4      0  2.313    517    368      0    157    885    885      0     0.0  0.000      0      0  0.000  0.000  0.000  0.000  0.000  0.000  0.000    3.78   0.00   0.00      0      0  447.6   0.43   0.40    0.0   0.74    0.46    0.46    0.37    0.17    0.09    0.04    0.01    0.00    0.00    0.00       98      49
 2011 136    45    30    7.7      0  2.514    562    419      0    168    981    981      0     0.0  0.000      0      0  0.000  0.000  0.000  0.000  0.000  0.000  0.000    3.84   0.00   0.00      0      0  447.2   0.46   0.43    0.0   0.76    0.49    0.49    0.39    0.19    0.10    0.05    0.01    0.00    0.00    0.00      129      53
 2011 137    46    31    8.0      0  2.705    606    477      0    180   1083   1083      0     0.0  0.000      0      0  0.000  0.000  0.000  0.000  0.000  0.000  0.000    3.90   0.00   0.00      0      0  446.3   0.49   0.45    0.0   0.78    0.51    0.51    0.41    0.20    0.11    0.05    0.02    0.00    0.00    0.00      166      56
 2011 138    47    32    8.3      0  2.941    665    545      0    193   1209   1209      0     0.0  0.000      0      0  0.000  0.000  0.000  0.000  0.000  0.000  0.000    3.90   0.00   0.00      0      0  442.5   0.52   0.47    0.0   0.79    0.54    0.54    0.43    0.22    0.12    0.06    0.02    0.00    0.00    0.00      187      60
 2011 139    48    33    8.6      1  3.192    721    620      0    207   1341   1341      0     0.0  0.000      0      0  0.000  0.000  0.000  0.000  0.000  0.000  0.000    3.90   0.00   0.00      0      0  442.5   0.55   0.48    0.0   0.81    0.57    0.57    0.45    0.23    0.14    0.07    0.03    0.00    0.00    0.00      209      64
 2011 140    49    34    8.9      1  3.401    783    703      0    221   1486   1486      0     0.0  0.000      0      0  0.000  0.000  0.000  0.000  0.000  0.000  0.000    3.89   0.00   0.00      0      0  434.5   0.58   0.50    0.0   0.82    0.61    0.61    0.48    0.25    0.15    0.07    0.03    0.00    0.00    0.00      230      68
 2011 141    50    35    9.2      3  3.602    843    791      0    235   1635   1635      0     0.0  0.000      0      0  0.000  0.000  0.000  0.000  0.000  0.000  0.000    3.89   0.00   0.00      0      0  427.2   0.61   0.52    0.0   0.84    0.64    0.64    0.50    0.27    0.16    0.08    0.04    0.00    0.00    0.00      254      73
 2011 142    51    36    9.4      3  3.795    904    884      0    250   1788   1788      0     0.0  0.000      0      0  0.000  0.000  0.000  0.000  0.000  0.000  0.000    3.88   0.00   0.00      0      0  419.8   0.64   0.54    0.0   0.86    0.67    0.67    0.52    0.29    0.17    0.09    0.05    0.00    0.00    0.00      278      78
 2011 143    52    37    9.7      3  3.958    965    983      0    265   1947   1952      0     0.0  0.000      5      6  0.000  0.000  0.000  0.000  0.000  0.000  0.000    3.88   0.00   0.00      0      5  410.2   0.68   0.55    0.0   0.87    0.71    0.71    0.55    0.30    0.19    0.10    0.05    0.00    0.00    0.00      303      83
 2011 144    53    38   10.0      3  4.087   1020   1079      0    279   2100   2122      0     0.0  0.000     22     21  0.000  0.000  0.000  0.000  0.000  0.000  0.000    3.87   0.00   0.01      0     22  400.5   0.71   0.57    0.0   0.89    0.74    0.74    0.57    0.32    0.20    0.10    0.06    0.01    0.00    0.00      329      89
 2011 145    54    39   10.3      3  4.192   1067   1169      0    290   2236   2288      0     0.0  0.000     52     37  0.000  0.000  0.000  0.000  0.000  0.000  0.000    3.86   0.00   0.02      0     52  392.8   0.75   0.58    0.0   0.91    0.76    0.76    0.59    0.33    0.21    0.11    0.06    0.01    0.00    0.00      354      95
 2011 146    55    40   10.7      3  4.276   1112   1256      0    300   2368   2463      0     0.0  0.000     95     53  0.000  0.000  0.000  0.000  0.000  0.000  0.000    3.84   0.00   0.04      0     95  384.5   0.79   0.59    0.0   0.92    0.78    0.78    0.61    0.35    0.22    0.12    0.07    0.01    0.00    0.00      376     101
 2011 147    56    41   11.0      3  4.333   1150   1338      0    309   2489   2640      0     0.0  0.000    151     69  0.000  0.000  0.000  0.000  0.000  0.000  0.000    3.82   0.00   0.06      0    151  376.7   0.82   0.60    0.0   0.94    0.80    0.80    0.62    0.36    0.23    0.12    0.07    0.01    0.00    0.00      397     108
 2011 148    57    42   11.3      5  4.369   1183   1413      0    316   2596   2818      0     0.0  0.000    222     85  0.000  0.000  0.000  0.000  0.000  0.000  0.000    3.80   0.00   0.08      0    222  369.3   0.86   0.60    0.0   0.96    0.82    0.82    0.63    0.36    0.23    0.12    0.07    0.02    0.00    0.00      415     114
 2011 149    58    43   11.6      5  4.386   1209   1478      0    321   2687   2994      0     0.0  0.000    307    103  0.000  0.000  0.000  0.000  0.000  0.000  0.000    3.77   0.00   0.10      0    307  362.8   0.90   0.60    0.0   0.97    0.83    0.83    0.64    0.37    0.24    0.13    0.08    0.02    0.00    0.00      432     121
 2011 150    59    44   11.9      5  4.390   1232   1540      0    325   2772   3169     69     0.0  0.000    397    119  0.000  0.000  0.000  0.000  0.000  0.000  0.000    3.75   0.00   0.13      0    397  356.2   0.94   0.60    0.0   0.99    0.83    0.83    0.64    0.38    0.24    0.13    0.08    0.02    0.00    0.00      456     128
 2011 151    60    45   12.2      5  4.365   1241   1580     26    326   2821   3345    120    21.8  0.008    524    135  0.000  0.000  0.000  0.000  0.000  0.000  0.000    3.72   5.00   0.16      0    524  351.7   0.97   0.60    0.0   1.00    0.83    0.83    0.64    0.38    0.24    0.13    0.08    0.02    0.00    0.00      478     135
 2011 152    61    46   12.2      5  4.311   1232   1593     73    322   2825   3500    173    42.2  0.021    675    152  0.000  0.000  0.000  0.000  0.000  0.000  0.000    3.70  10.82   0.19      0    675  349.8   1.01   0.60    0.0   1.02    0.82    0.82    0.63    0.37    0.24    0.13    0.08    0.02    0.00    0.00      501     142
 2011 153    62    47   12.2      5  4.231   1206   1574    142    315   2781   3634    173    81.9  0.039    853    169  0.000  0.000  0.000  0.000  0.000  0.000  0.000    3.65  16.62   0.23      0    853  350.8   1.06   0.60    0.0   1.04    0.81    0.81    0.62    0.36    0.23    0.13    0.08    0.02    0.00    0.00      520     148
 2011 154    63    48   12.2      5  4.151   1185   1569    210    310   2755   3781    228    92.2  0.056   1026    183  0.000  0.000  0.000  0.000  0.000  0.000  0.000    3.60  20.47   0.27      0   1026  350.1   1.09   0.60    0.0   1.05    0.79    0.79    0.61    0.36    0.23    0.12    0.08    0.02    0.00    0.00      545     155
 2011 155    64    49   12.2      5  4.061   1157   1550    300    303   2706   3915    284   105.9  0.077   1209    199  0.000  0.000  0.000  0.000  0.000  0.000  0.000    3.54  24.83   0.31      0   1209  351.1   1.09   0.60    0.0   1.05    0.78    0.78    0.60    0.35    0.23    0.12    0.08    0.02    0.00    0.00      569     161
 2011 156    65    50   12.2      5  3.962   1126   1530    408    296   2656   4069    342   119.2  0.100   1413    214  0.000  0.000  0.000  0.000  0.000  0.000  0.000    3.47  28.84   0.35      0   1413  352.0   1.09   0.60    0.0   1.07    0.76    0.76    0.59    0.34    0.22    0.12    0.07    0.02    0.00    0.00      597     168
 2011 157    66    51   12.2      5  3.856   1094   1512    535    289   2606   4223    400   133.7  0.127   1617    226  0.000  0.000  0.000  0.000  0.000  0.000  0.000    3.40  33.09   0.38      0   1617  352.6   1.09   0.60    0.0   1.09    0.75    0.75    0.57    0.34    0.22    0.12    0.07    0.02    0.00    0.00      627     174
 2011 158    67    52   12.2      5  3.746   1059   1491    687    283   2550   4376    459   149.6  0.157   1826    235  0.000  0.000  0.000  0.000  0.000  0.000  0.000    3.31  37.62   0.42      0   1826  353.6   1.09   0.60    0.0   1.10    0.73    0.73    0.56    0.33    0.21    0.11    0.07    0.02    0.00    0.00      657     180
 2011 159    68    53   12.2      5  3.632   1025   1471    859    276   2495   4532    517   166.1  0.190   2036    241  0.000  0.000  0.000  0.000  0.000  0.000  0.000    3.22  42.19   0.45      0   2036  354.4   1.09   0.60    0.0   1.12    0.72    0.72    0.55    0.32    0.21    0.11    0.07    0.02    0.00    0.00      689     187
 2011 160    69    54   12.2      5  3.512    989   1452   1051    270   2441   4685    572   183.6  0.224   2244    244  0.000  0.000  0.000  0.000  0.000  0.000  0.000    3.11  46.83   0.48      0   2244  355.0   1.09   0.60    0.0   1.13    0.70    0.70    0.54    0.32    0.20    0.11    0.07    0.02    0.00    0.00      722     193
 2011 161    70    55   12.2      7  3.398    958   1439   1258    265   2397   4823    667   188.4  0.261   2426    240  0.000  0.000  0.000  0.000  0.000  0.000  0.000    3.01  51.83   0.50      0   2426  354.8   1.09   0.60    0.0   1.15    0.69    0.69    0.53    0.31    0.20    0.11    0.07    0.02    0.00    0.00      769     199
 2011 162    71    56   12.2      7  2.510    708   1363   1476    258   2071   4687    689   214.2  0.315   2616    231  0.000  0.000  0.000  0.000  0.000  0.000  0.000    2.81  56.43   0.56      0   2616  354.7   1.09   0.60    0.0   1.15    0.67    0.67    0.52    0.31    0.20    0.11    0.07    0.02    0.00    0.00     1099     204
 2011 163    72    57   12.2      7  1.858    524   1308   1657    252   1832   4619    689   240.4  0.359   2787    218  0.000  0.000  0.000  0.000  0.000  0.000  0.000    2.63  59.44   0.60      0   2787  354.4   1.09   0.60    0.0   1.15    0.66    0.66    0.51    0.30    0.19    0.10    0.06    0.02    0.00    0.00     1329     210
 2011 164    73    58   12.2      7  1.377    388   1262   1807    247   1649   4577    689   262.1  0.395   2928    208  0.000  0.000  0.000  0.000  0.000  0.000  0.000    2.47  61.72   0.64      0   2928  355.1   1.09   0.60    0.0   1.15    0.65    0.65    0.50    0.29    0.19    0.10    0.06    0.02    0.00    0.00     1499     215
 2011 165    74    59   12.2      7  1.021    287   1223   1924    241   1509   4544    689   279.1  0.423   3034    201  0.000  0.000  0.000  0.000  0.000  0.000  0.000    2.33  63.40   0.67      0   3034  356.4   1.09   0.60    0.0   1.15    0.63    0.63    0.49    0.29    0.18    0.10    0.06    0.02    0.00    0.00     1625     221
 2011 166    75    60   12.2      7  0.758    212   1192   2012    235   1404   4517    689   292.0  0.446   3113    198  0.000  0.000  0.000  0.000  0.000  0.000  0.000    2.21  64.64   0.69      0   3113  357.9   1.09   0.60    0.0   1.15    0.62    0.62    0.47    0.28    0.18    0.10    0.06    0.02    0.00    0.00     1718     226
 2011 167    76    61   12.2      7  0.564    157   1167   2076    230   1324   4492    689   301.2  0.462   3168    197  0.000  0.000  0.000  0.000  0.000  0.000  0.000    2.09  65.53   0.71      0   3168  359.4   1.09   0.60    0.0   1.15    0.60    0.60    0.46    0.27    0.18    0.09    0.06    0.02    0.00    0.00     1787     231
 2011 168    77    62   12.2      7  0.420    116   1147   2124    225   1263   4471    689   308.1  0.475   3207    197  0.000  0.000  0.000  0.000  0.000  0.000  0.000    1.99  66.21   0.72      0   3207  360.8   1.09   0.60    0.0   1.15    0.59    0.59    0.45    0.27    0.17    0.09    0.06    0.02    0.00    0.00     1838     236
 2011 169    78    63   12.2      7  0.313     86   1131   2154    220   1218   4449    689   312.5  0.484   3231    197  0.000  0.000  0.000  0.000  0.000  0.000  0.000    1.92  66.66   0.73      0   3231  362.2   1.09   0.60    0.0   1.15    0.58    0.58    0.44    0.26    0.17    0.09    0.06    0.02    0.00    0.00     1876     241
 2011 170    79    64   12.2      8  0.234     64   1119   2171    215   1183   4427    689   315.0  0.490   3244    197  0.000  0.000  0.000  0.000  0.000  0.000  0.000    1.89  66.92   0.73      0   3244  363.4   1.09   0.60    0.0   1.15    0.57    0.57    0.43    0.26    0.16    0.09    0.06    0.02    0.00    0.00     1904     246
