*SIMULATION OVERVIEW FILE

*DSSAT Cropping System Model Ver. 4.6.1.000 -release      JUL 11, 2017; 16:24:49
                                                                                
*RUN   1        : SIM                       CRGRO046 5\000005    1              
 MODEL          : CRGRO046 - Dry bean                                           
 EXPERIMENT     : 5\000005 BN PALMIRA_ANALISIS SENSIBILIDAD                     
 DATA PATH      : D:\B\0\00000                                                  
 TREATMENT  1   : SIM                       CRGRO046                            
                                                                                
                                                                                
 CROP           : Dry bean         CULTIVAR : Jatu Rong        ECOTYPE :ANDIND  
 STARTING DATE  : APR  1 1980                                                   
 PLANTING DATE  : AUTOMATIC PLANTING PLANTS/m2 : 26.6     ROW SPACING :  60.cm  
 WEATHER        : PALM   1980                                                   
 SOIL           : CCPA000030     TEXTURE : C     -   Silty Clay Loam            
 WATER BALANCE  : NOT SIMULATED ; NO H2O-STRESS                                 
 IRRIGATION     :                                                               
 NITROGEN BAL.  : NOT SIMULATED ; NO N-STRESS                                   
 N-FERTILIZER   :                                                               
 RESIDUE/MANURE :                                                               
 ENVIRONM. OPT. : DAYL=    0.00  SRAD=    0.00  TMAX=    0.00  TMIN=    0.00    
                  RAIN=    0.00  CO2 =    0.00  DEW =    0.00  WIND=    0.00    
 SIMULATION OPT : WATER   :N  NITROGEN:N  N-FIX:N  PHOSPH :N  PESTS  :N         
                  PHOTO   :L  ET      :R  INFIL:S  HYDROL :R  SOM    :G         
                  CO2 338ppm  NSWIT   :1  EVAP :S  SOIL   :2  STEMP  :D         
 MANAGEMENT OPT : PLANTING:A  IRRIG   :A  FERT :D  RESIDUE:N  HARVEST:M         
                  WEATHER :M  TILLAGE :N                                        
                                                                                
*SUMMARY OF SOIL AND GENETIC INPUT PARAMETERS                                   
                                                                                
 Dry bean   CULTIVAR :000005-Jatu Rong          ECOTYPE :ANDIND                 
 CSDVAR :12.17  PPSEN  : 0.05  EMG-FLW:22.00  FLW-FSD: 9.00  FSD-PHM : 11.00    
 WTPSD  :0.600  SDPDVR : 3.50  SDFDUR :15.00  PODDUR :10.00  XFRUIT  :  1.00    
 THRESH : 78.0  SDPRO  :0.235  SDLIP   : 0.030                                  


*SIMULATED CROP AND SOIL STATUS AT MAIN DEVELOPMENT STAGES

 RUN NO.     1     SIM                     

        CROP GROWTH     BIOMASS         LEAF   CROP N     STRESS      STRESS                                           
   DATE  AGE STAGE        kg/ha    LAI   NUM  kg/ha  %   H2O  Nitr Phos1 Phos2  RSTG                                   
 ------  --- ----------   -----  -----  ----  ---  ---  ----  ----  ----  ----  ----                                   
  1 APR    0 Start Sim        0   0.00   0.0    0  0.0  0.00  0.00  0.00  0.00     0
 15 APR    0 Sowing           0   0.00   0.0    0  0.0  0.00  0.00  0.00  0.00     0
 20 APR    5 Emergence       44   0.08   0.2    1  3.4  0.00  0.00  0.00  0.00     0
 20 APR    5 End Juven.      44   0.08   0.2    1  3.4  0.00  0.00  0.00  0.00     0
 23 APR    8 Unifoliate      49   0.09   1.1    2  3.3  0.00  0.64  0.00  0.00     0
 25 APR   10 Flower Ind      56   0.10   1.7    2  3.2  0.00  0.41  0.00  0.00     0
 13 MAY   28 First Flwr     728   1.95   7.1   23  3.1  0.00  0.01  0.00  0.00     1
 16 MAY   31 First Pod      979   2.39   7.9   31  3.2  0.00  0.00  0.00  0.00     3
 23 MAY   38 First Seed    1861   2.99  10.1   56  3.0  0.00  0.00  0.00  0.00     5
 25 MAY   40 End Msnode    2141   3.00  10.7   64  3.0  0.00  0.00  0.00  0.00     5
 30 MAY   45 End Pod       2784   2.76  10.7   83  3.0  0.00  0.00  0.00  0.00     5
  2 JUN   48 End Leaf      3140   2.55  10.7   92  2.9  0.00  0.00  0.00  0.00     5
  4 JUN   50 Phys. Mat     3384   2.39  10.7   97  2.9  0.00  0.00  0.00  0.00     7
 13 JUN   59 Harv. Mat     3122   0.16  10.7   89  2.8  0.00  0.00  0.00  0.00     8
 13 JUN   59 Harvest       3122   0.16  10.7   89  2.8  0.00  0.00  0.00  0.00     8


*MAIN GROWTH AND DEVELOPMENT VARIABLES

@     VARIABLE                                         SIMULATED     MEASURED
      --------                                         ---------     --------
      Anthesis day (dap)                                      28          -99
      First pod day (dap)                                     31          -99
      First seed day (dap)                                    38          -99
      Physiological maturity day (dap)                        50          -99
      Yield at harvest maturity (kg [dm]/ha)                1707          -99
      Pod/Ear/Panicle weight at maturity (kg [dm]/ha)       2470          -99
      Number at maturity (no/m2)                             487          -99
      Unit wt at maturity (g [dm]/unit)                   0.3507          -99
      Number at maturity (no/unit)                          3.50          -99
      Tops weight at maturity (kg [dm]/ha)                  3122          -99
      By-product produced (stalk) at maturity (kg[dm]/ha    1410          -99
      Leaf area index, maximum                              3.00          -99
      Harvest index at maturity                            0.547          -99
      Threshing % at maturity                              69.14          -99
      Grain N at maturity (kg/ha)                             64          -99
      Tops N at maturity (kg/ha)                              89          -99
      Stem N at maturity (kg/ha)                               7          -99
      Grain N at maturity (%)                               3.76          -99
      Tops weight at anthesis (kg [dm]/ha)                   728          -99
      Tops N at anthesis (kg/ha)                              23          -99
      Leaf number per stem at maturity                     10.67          -99
      Grain oil at maturity (%)                             2.89          -99
      Canopy height (m)                                     0.90          -99
      Harvest maturity day (dap)                              59          -99
      Emergence day (dap)                                      5          -99


*ENVIRONMENTAL AND STRESS FACTORS

 |-----Development Phase------|--------------------------------------Environment--------------------------------------|-----------------Stress-----------------|
                              |---------------Average--------------|-----Cumulative-----|--------Count of days--------|          (0=Min, 1=Max Stress)         |
                         Time  Temp  Temp  Temp Solar Photop                Evapo    Pot TMIN TMIN TMAX TMAX TMAX RAIN|----Water----|---Nitrogen--|-Phosphorus-|
                         Span   Max   Min  Mean   Rad  [day]    CO2   Rain  Trans     ET   <    <    >    >    >    >   Photo         Photo         Photo
                         days    øC    øC    øC MJ/m2     hr    ppm     mm     mm     mm  0øC  2øC 30øC 32øC 34øC  0mm  synth Growth  synth Growth  synth Growth
----------------------------------------------------------------------------------------------------------------------------------------------------------------
 Emergence -First Flower   23  29.8  19.5  24.7  18.7  12.13  338.3   53.1    0.0    0.0    0    0   12    2    0   11  0.000  0.000  0.000  0.129  0.000  0.000
 First Flower-First Seed   10  29.7  19.5  24.6  18.2  12.17  338.5    4.3    0.0    0.0    0    0    5    0    0    4  0.000  0.000  0.000  0.000  0.000  0.000
 First Seed - Phys. Mat.   12  28.8  19.2  24.0  17.5  12.19  338.5   37.1    0.0    0.0    0    0    3    0    0    6  0.000  0.000  0.000  0.000  0.000  0.000
 Emergence  - Phys. Mat.   45  29.5  19.4  24.5  18.3  12.15  338.4   94.5    0.0    0.0    0    0   20    2    0   21  0.000  0.000  0.000  0.066  0.000  0.000


 Planting to Harvest       73  29.6  19.3  24.5  18.5  12.14  338.4  209.4    0.0    0.0    0    0   35    2    0   29  0.000  0.000  0.000  0.040  0.000  0.000
----------------------------------------------------------------------------------------------------------------------------------------------------------------

--------------------------------------------------------------------------------------------------------------

                  Dry bean YIELD :     1707 kg/ha    [Dry weight] 

**************************************************************************************************************

*DSSAT Cropping System Model Ver. 4.6.1.000 -release      JUL 11, 2017; 16:24:49
                                                                                
*RUN   2        : SIM                       CRGRO046 5\000005    1              
 MODEL          : CRGRO046 - Dry bean                                           
 EXPERIMENT     : 5\000005 BN PALMIRA_ANALISIS SENSIBILIDAD                     
 DATA PATH      : D:\B\0\00000                                                  
 TREATMENT  1   : SIM                       CRGRO046                            
                                                                                
                                                                                
 CROP           : Dry bean         CULTIVAR : Jatu Rong        ECOTYPE :ANDIND  
 STARTING DATE  : APR  2 1981                                                   
 PLANTING DATE  : APR 16 1981        PLANTS/m2 : 26.6     ROW SPACING :  60.cm  
 WEATHER        : PALM8034                                                      
 SOIL           : CCPA000030     TEXTURE : C     -   Silty Clay Loam            
 WATER BALANCE  : NOT SIMULATED ; NO H2O-STRESS                                 
 IRRIGATION     :                                                               
 NITROGEN BAL.  : NOT SIMULATED ; NO N-STRESS                                   
 N-FERTILIZER   :                                                               
 RESIDUE/MANURE :                                                               
 ENVIRONM. OPT. : DAYL=    0.00  SRAD=    0.00  TMAX=    0.00  TMIN=    0.00    
                  RAIN=    0.00  CO2 =    0.00  DEW =    0.00  WIND=    0.00    
 SIMULATION OPT : WATER   :N  NITROGEN:N  N-FIX:N  PHOSPH :N  PESTS  :N         
                  PHOTO   :L  ET      :R  INFIL:S  HYDROL :R  SOM    :G         
                  CO2 340ppm  NSWIT   :1  EVAP :S  SOIL   :2  STEMP  :D         
 MANAGEMENT OPT : PLANTING:A  IRRIG   :A  FERT :D  RESIDUE:N  HARVEST:M         
                  WEATHER :M  TILLAGE :N                                        
                                                                                
*SUMMARY OF SOIL AND GENETIC INPUT PARAMETERS                                   
                                                                                
 Dry bean   CULTIVAR :000005-Jatu Rong          ECOTYPE :ANDIND                 
 CSDVAR :12.17  PPSEN  : 0.05  EMG-FLW:22.00  FLW-FSD: 9.00  FSD-PHM : 11.00    
 WTPSD  :0.600  SDPDVR : 3.50  SDFDUR :15.00  PODDUR :10.00  XFRUIT  :  1.00    
 THRESH : 78.0  SDPRO  :0.235  SDLIP   : 0.030                                  


*SIMULATED CROP AND SOIL STATUS AT MAIN DEVELOPMENT STAGES

 RUN NO.     2     SIM                     

        CROP GROWTH     BIOMASS         LEAF   CROP N     STRESS      STRESS                                           
   DATE  AGE STAGE        kg/ha    LAI   NUM  kg/ha  %   H2O  Nitr Phos1 Phos2  RSTG                                   
 ------  --- ----------   -----  -----  ----  ---  ---  ----  ----  ----  ----  ----                                   
  2 APR    0 Start Sim        0   0.00   0.0    0  0.0  0.00  0.00  0.00  0.00     0
 16 APR    0 Sowing           0   0.00   0.0    0  0.0  0.00  0.00  0.00  0.00     0
 21 APR    5 Emergence       44   0.08   0.2    1  3.4  0.00  0.00  0.00  0.00     0
 21 APR    5 End Juven.      44   0.08   0.2    1  3.4  0.00  0.00  0.00  0.00     0
 24 APR    8 Unifoliate      48   0.09   1.1    2  3.3  0.00  0.66  0.00  0.00     0
 26 APR   10 Flower Ind      54   0.10   1.7    2  3.2  0.00  0.47  0.00  0.00     0
 15 MAY   29 First Flwr     749   1.98   7.1   23  3.1  0.00  0.02  0.00  0.00     1
 18 MAY   32 First Pod     1000   2.41   7.9   32  3.2  0.00  0.00  0.00  0.00     3
 25 MAY   39 First Seed    1877   2.97  10.0   57  3.0  0.00  0.00  0.00  0.00     5
 27 MAY   41 End Msnode    2148   2.98  10.6   64  3.0  0.00  0.00  0.00  0.00     5
  1 JUN   46 End Pod       2796   2.76  10.6   82  2.9  0.00  0.00  0.00  0.00     5
  4 JUN   49 End Leaf      3170   2.54  10.6   91  2.9  0.00  0.00  0.00  0.00     5
  6 JUN   51 Phys. Mat     3414   2.37  10.6   97  2.8  0.00  0.00  0.00  0.00     7
 15 JUN   60 Harv. Mat     3099   0.16  10.6   86  2.8  0.00  0.00  0.00  0.00     8
 15 JUN   60 Harvest       3099   0.16  10.6   86  2.8  0.00  0.00  0.00  0.00     8


*MAIN GROWTH AND DEVELOPMENT VARIABLES

@     VARIABLE                                         SIMULATED     MEASURED
      --------                                         ---------     --------
      Anthesis day (dap)                                      29          -99
      First pod day (dap)                                     32          -99
      First seed day (dap)                                    39          -99
      Physiological maturity day (dap)                        51          -99
      Yield at harvest maturity (kg [dm]/ha)                1574          -99
      Pod/Ear/Panicle weight at maturity (kg [dm]/ha)       2425          -99
      Number at maturity (no/m2)                             531          -99
      Unit wt at maturity (g [dm]/unit)                   0.2964          -99
      Number at maturity (no/unit)                          3.50          -99
      Tops weight at maturity (kg [dm]/ha)                  3099          -99
      By-product produced (stalk) at maturity (kg[dm]/ha    1520          -99
      Leaf area index, maximum                              2.98          -99
      Harvest index at maturity                            0.508          -99
      Threshing % at maturity                              64.92          -99
      Grain N at maturity (kg/ha)                             59          -99
      Tops N at maturity (kg/ha)                              86          -99
      Stem N at maturity (kg/ha)                               8          -99
      Grain N at maturity (%)                               3.75          -99
      Tops weight at anthesis (kg [dm]/ha)                   749          -99
      Tops N at anthesis (kg/ha)                              23          -99
      Leaf number per stem at maturity                     10.57          -99
      Grain oil at maturity (%)                             2.92          -99
      Canopy height (m)                                     0.87          -99
      Harvest maturity day (dap)                              60          -99
      Emergence day (dap)                                      5          -99


*ENVIRONMENTAL AND STRESS FACTORS

 |-----Development Phase------|--------------------------------------Environment--------------------------------------|-----------------Stress-----------------|
                              |---------------Average--------------|-----Cumulative-----|--------Count of days--------|          (0=Min, 1=Max Stress)         |
                         Time  Temp  Temp  Temp Solar Photop                Evapo    Pot TMIN TMIN TMAX TMAX TMAX RAIN|----Water----|---Nitrogen--|-Phosphorus-|
                         Span   Max   Min  Mean   Rad  [day]    CO2   Rain  Trans     ET   <    <    >    >    >    >   Photo         Photo         Photo
                         days    øC    øC    øC MJ/m2     hr    ppm     mm     mm     mm  0øC  2øC 30øC 32øC 34øC  0mm  synth Growth  synth Growth  synth Growth
----------------------------------------------------------------------------------------------------------------------------------------------------------------
 Emergence -First Flower   24  28.2  18.9  23.5  17.7  12.13  339.7  111.6    0.0    0.0    0    0    1    0    0   17  0.000  0.000  0.000  0.133  0.000  0.000
 First Flower-First Seed   10  28.9  19.2  24.0  17.8  12.17  339.8   75.2    0.0    0.0    0    0    4    0    0    6  0.000  0.000  0.000  0.000  0.000  0.000
 First Seed - Phys. Mat.   12  28.9  19.3  24.1  17.5  12.19  339.8   24.2    0.0    0.0    0    0    3    0    0    5  0.000  0.000  0.000  0.000  0.000  0.000
 Emergence  - Phys. Mat.   46  28.5  19.1  23.8  17.6  12.15  339.8  211.0    0.0    0.0    0    0    8    0    0   28  0.000  0.000  0.000  0.069  0.000  0.000


 Planting to Harvest       74  28.6  19.2  23.9  17.7  12.14  339.8  399.9    0.0    0.0    0    0   14    0    0   45  0.000  0.000  0.000  0.043  0.000  0.000
----------------------------------------------------------------------------------------------------------------------------------------------------------------

--------------------------------------------------------------------------------------------------------------

                  Dry bean YIELD :     1574 kg/ha    [Dry weight] 

**************************************************************************************************************

*DSSAT Cropping System Model Ver. 4.6.1.000 -release      JUL 11, 2017; 16:24:49
                                                                                
*RUN   3        : SIM                       CRGRO046 5\000005    1              
 MODEL          : CRGRO046 - Dry bean                                           
 EXPERIMENT     : 5\000005 BN PALMIRA_ANALISIS SENSIBILIDAD                     
 DATA PATH      : D:\B\0\00000                                                  
 TREATMENT  1   : SIM                       CRGRO046                            
                                                                                
                                                                                
 CROP           : Dry bean         CULTIVAR : Jatu Rong        ECOTYPE :ANDIND  
 STARTING DATE  : APR  2 1982                                                   
 PLANTING DATE  : APR 16 1982        PLANTS/m2 : 26.6     ROW SPACING :  60.cm  
 WEATHER        : PALM8034                                                      
 SOIL           : CCPA000030     TEXTURE : C     -   Silty Clay Loam            
 WATER BALANCE  : NOT SIMULATED ; NO H2O-STRESS                                 
 IRRIGATION     :                                                               
 NITROGEN BAL.  : NOT SIMULATED ; NO N-STRESS                                   
 N-FERTILIZER   :                                                               
 RESIDUE/MANURE :                                                               
 ENVIRONM. OPT. : DAYL=    0.00  SRAD=    0.00  TMAX=    0.00  TMIN=    0.00    
                  RAIN=    0.00  CO2 =    0.00  DEW =    0.00  WIND=    0.00    
 SIMULATION OPT : WATER   :N  NITROGEN:N  N-FIX:N  PHOSPH :N  PESTS  :N         
                  PHOTO   :L  ET      :R  INFIL:S  HYDROL :R  SOM    :G         
                  CO2 341ppm  NSWIT   :1  EVAP :S  SOIL   :2  STEMP  :D         
 MANAGEMENT OPT : PLANTING:A  IRRIG   :A  FERT :D  RESIDUE:N  HARVEST:M         
                  WEATHER :M  TILLAGE :N                                        
                                                                                
*SUMMARY OF SOIL AND GENETIC INPUT PARAMETERS                                   
                                                                                
 Dry bean   CULTIVAR :000005-Jatu Rong          ECOTYPE :ANDIND                 
 CSDVAR :12.17  PPSEN  : 0.05  EMG-FLW:22.00  FLW-FSD: 9.00  FSD-PHM : 11.00    
 WTPSD  :0.600  SDPDVR : 3.50  SDFDUR :15.00  PODDUR :10.00  XFRUIT  :  1.00    
 THRESH : 78.0  SDPRO  :0.235  SDLIP   : 0.030                                  


*SIMULATED CROP AND SOIL STATUS AT MAIN DEVELOPMENT STAGES

 RUN NO.     3     SIM                     

        CROP GROWTH     BIOMASS         LEAF   CROP N     STRESS      STRESS                                           
   DATE  AGE STAGE        kg/ha    LAI   NUM  kg/ha  %   H2O  Nitr Phos1 Phos2  RSTG                                   
 ------  --- ----------   -----  -----  ----  ---  ---  ----  ----  ----  ----  ----                                   
  2 APR    0 Start Sim        0   0.00   0.0    0  0.0  0.00  0.00  0.00  0.00     0
 16 APR    0 Sowing           0   0.00   0.0    0  0.0  0.00  0.00  0.00  0.00     0
 21 APR    5 Emergence       44   0.08   0.2    1  3.4  0.00  0.00  0.00  0.00     0
 21 APR    5 End Juven.      44   0.08   0.2    1  3.4  0.00  0.00  0.00  0.00     0
 24 APR    8 Unifoliate      49   0.09   1.1    2  3.3  0.00  0.65  0.00  0.00     0
 26 APR   10 Flower Ind      55   0.10   1.7    2  3.2  0.00  0.44  0.00  0.00     0
 14 MAY   28 First Flwr     708   1.91   7.0   22  3.1  0.00  0.01  0.00  0.00     1
 17 MAY   31 First Pod      965   2.33   7.9   31  3.2  0.00  0.00  0.00  0.00     3
 24 MAY   38 First Seed    1799   2.94   9.9   55  3.0  0.00  0.00  0.00  0.00     5
 27 MAY   41 End Msnode    2181   2.94  10.8   65  3.0  0.00  0.00  0.00  0.00     5
 31 MAY   45 End Pod       2697   2.75  10.8   80  3.0  0.00  0.00  0.00  0.00     5
  3 JUN   48 End Leaf      3061   2.53  10.8   89  2.9  0.00  0.00  0.00  0.00     5
  6 JUN   51 Phys. Mat     3402   2.30  10.8   97  2.9  0.00  0.00  0.00  0.00     7
 15 JUN   60 Harv. Mat     3171   0.16  10.8   91  2.9  0.00  0.00  0.00  0.00     8
 15 JUN   60 Harvest       3171   0.16  10.8   91  2.9  0.00  0.00  0.00  0.00     8


*MAIN GROWTH AND DEVELOPMENT VARIABLES

@     VARIABLE                                         SIMULATED     MEASURED
      --------                                         ---------     --------
      Anthesis day (dap)                                      28          -99
      First pod day (dap)                                     31          -99
      First seed day (dap)                                    38          -99
      Physiological maturity day (dap)                        51          -99
      Yield at harvest maturity (kg [dm]/ha)                1758          -99
      Pod/Ear/Panicle weight at maturity (kg [dm]/ha)       2550          -99
      Number at maturity (no/m2)                             522          -99
      Unit wt at maturity (g [dm]/unit)                   0.3369          -99
      Number at maturity (no/unit)                          3.50          -99
      Tops weight at maturity (kg [dm]/ha)                  3171          -99
      By-product produced (stalk) at maturity (kg[dm]/ha    1410          -99
      Leaf area index, maximum                              2.95          -99
      Harvest index at maturity                            0.554          -99
      Threshing % at maturity                              68.94          -99
      Grain N at maturity (kg/ha)                             67          -99
      Tops N at maturity (kg/ha)                              91          -99
      Stem N at maturity (kg/ha)                               7          -99
      Grain N at maturity (%)                               3.82          -99
      Tops weight at anthesis (kg [dm]/ha)                   708          -99
      Tops N at anthesis (kg/ha)                              22          -99
      Leaf number per stem at maturity                     10.75          -99
      Grain oil at maturity (%)                             2.83          -99
      Canopy height (m)                                     0.90          -99
      Harvest maturity day (dap)                              60          -99
      Emergence day (dap)                                      5          -99


*ENVIRONMENTAL AND STRESS FACTORS

 |-----Development Phase------|--------------------------------------Environment--------------------------------------|-----------------Stress-----------------|
                              |---------------Average--------------|-----Cumulative-----|--------Count of days--------|          (0=Min, 1=Max Stress)         |
                         Time  Temp  Temp  Temp Solar Photop                Evapo    Pot TMIN TMIN TMAX TMAX TMAX RAIN|----Water----|---Nitrogen--|-Phosphorus-|
                         Span   Max   Min  Mean   Rad  [day]    CO2   Rain  Trans     ET   <    <    >    >    >    >   Photo         Photo         Photo
                         days    øC    øC    øC MJ/m2     hr    ppm     mm     mm     mm  0øC  2øC 30øC 32øC 34øC  0mm  synth Growth  synth Growth  synth Growth
----------------------------------------------------------------------------------------------------------------------------------------------------------------
 Emergence -First Flower   23  29.3  19.4  24.4  18.4  12.13  340.9   57.5    0.0    0.0    0    0    8    1    0    8  0.000  0.000  0.000  0.131  0.000  0.000
 First Flower-First Seed   10  28.6  19.0  23.8  17.6  12.17  341.0   55.9    0.0    0.0    0    0    3    1    0    5  0.000  0.000  0.000  0.000  0.000  0.000
 First Seed - Phys. Mat.   13  28.5  19.7  24.1  16.7  12.19  341.0   13.7    0.0    0.0    0    0    2    0    0    4  0.000  0.000  0.000  0.000  0.000  0.000
 Emergence  - Phys. Mat.   46  28.9  19.4  24.1  17.7  12.15  340.9  127.1    0.0    0.0    0    0   13    2    0   17  0.000  0.000  0.000  0.065  0.000  0.000


 Planting to Harvest       74  29.0  19.3  24.2  18.0  12.14  340.9  260.9    0.0    0.0    0    0   22    2    0   29  0.000  0.000  0.000  0.041  0.000  0.000
----------------------------------------------------------------------------------------------------------------------------------------------------------------

--------------------------------------------------------------------------------------------------------------

                  Dry bean YIELD :     1758 kg/ha    [Dry weight] 

**************************************************************************************************************

*DSSAT Cropping System Model Ver. 4.6.1.000 -release      JUL 11, 2017; 16:24:49
                                                                                
*RUN   4        : SIM                       CRGRO046 5\000005    1              
 MODEL          : CRGRO046 - Dry bean                                           
 EXPERIMENT     : 5\000005 BN PALMIRA_ANALISIS SENSIBILIDAD                     
 DATA PATH      : D:\B\0\00000                                                  
 TREATMENT  1   : SIM                       CRGRO046                            
                                                                                
                                                                                
 CROP           : Dry bean         CULTIVAR : Jatu Rong        ECOTYPE :ANDIND  
 STARTING DATE  : APR  2 1983                                                   
 PLANTING DATE  : APR 16 1983        PLANTS/m2 : 26.6     ROW SPACING :  60.cm  
 WEATHER        : PALM8034                                                      
 SOIL           : CCPA000030     TEXTURE : C     -   Silty Clay Loam            
 WATER BALANCE  : NOT SIMULATED ; NO H2O-STRESS                                 
 IRRIGATION     :                                                               
 NITROGEN BAL.  : NOT SIMULATED ; NO N-STRESS                                   
 N-FERTILIZER   :                                                               
 RESIDUE/MANURE :                                                               
 ENVIRONM. OPT. : DAYL=    0.00  SRAD=    0.00  TMAX=    0.00  TMIN=    0.00    
                  RAIN=    0.00  CO2 =    0.00  DEW =    0.00  WIND=    0.00    
 SIMULATION OPT : WATER   :N  NITROGEN:N  N-FIX:N  PHOSPH :N  PESTS  :N         
                  PHOTO   :L  ET      :R  INFIL:S  HYDROL :R  SOM    :G         
                  CO2 342ppm  NSWIT   :1  EVAP :S  SOIL   :2  STEMP  :D         
 MANAGEMENT OPT : PLANTING:A  IRRIG   :A  FERT :D  RESIDUE:N  HARVEST:M         
                  WEATHER :M  TILLAGE :N                                        
                                                                                
*SUMMARY OF SOIL AND GENETIC INPUT PARAMETERS                                   
                                                                                
 Dry bean   CULTIVAR :000005-Jatu Rong          ECOTYPE :ANDIND                 
 CSDVAR :12.17  PPSEN  : 0.05  EMG-FLW:22.00  FLW-FSD: 9.00  FSD-PHM : 11.00    
 WTPSD  :0.600  SDPDVR : 3.50  SDFDUR :15.00  PODDUR :10.00  XFRUIT  :  1.00    
 THRESH : 78.0  SDPRO  :0.235  SDLIP   : 0.030                                  


*SIMULATED CROP AND SOIL STATUS AT MAIN DEVELOPMENT STAGES

 RUN NO.     4     SIM                     

        CROP GROWTH     BIOMASS         LEAF   CROP N     STRESS      STRESS                                           
   DATE  AGE STAGE        kg/ha    LAI   NUM  kg/ha  %   H2O  Nitr Phos1 Phos2  RSTG                                   
 ------  --- ----------   -----  -----  ----  ---  ---  ----  ----  ----  ----  ----                                   
  2 APR    0 Start Sim        0   0.00   0.0    0  0.0  0.00  0.00  0.00  0.00     0
 16 APR    0 Sowing           0   0.00   0.0    0  0.0  0.00  0.00  0.00  0.00     0
 21 APR    5 Emergence       44   0.08   0.2    1  3.4  0.00  0.00  0.00  0.00     0
 21 APR    5 End Juven.      44   0.08   0.2    1  3.4  0.00  0.00  0.00  0.00     0
 24 APR    8 Unifoliate      48   0.09   1.1    2  3.3  0.00  0.66  0.00  0.00     0
 26 APR   10 Flower Ind      55   0.10   1.7    2  3.2  0.00  0.43  0.00  0.00     0
 14 MAY   28 First Flwr     737   1.96   7.1   23  3.1  0.00  0.01  0.00  0.00     1
 17 MAY   31 First Pod      996   2.38   8.0   32  3.2  0.00  0.00  0.00  0.00     3
 24 MAY   38 First Seed    1883   2.97  10.1   57  3.0  0.00  0.00  0.00  0.00     5
 26 MAY   40 End Msnode    2165   2.99  10.7   65  3.0  0.00  0.00  0.00  0.00     5
 31 MAY   45 End Pod       2826   2.76  10.7   83  2.9  0.00  0.00  0.00  0.00     5
  3 JUN   48 End Leaf      3180   2.53  10.7   92  2.9  0.00  0.00  0.00  0.00     5
  5 JUN   50 Phys. Mat     3408   2.37  10.7   97  2.8  0.00  0.00  0.00  0.00     7
 14 JUN   59 Harv. Mat     3145   0.16  10.7   88  2.8  0.00  0.00  0.00  0.00     8
 14 JUN   59 Harvest       3145   0.16  10.7   88  2.8  0.00  0.00  0.00  0.00     8


*MAIN GROWTH AND DEVELOPMENT VARIABLES

@     VARIABLE                                         SIMULATED     MEASURED
      --------                                         ---------     --------
      Anthesis day (dap)                                      28          -99
      First pod day (dap)                                     31          -99
      First seed day (dap)                                    38          -99
      Physiological maturity day (dap)                        50          -99
      Yield at harvest maturity (kg [dm]/ha)                1674          -99
      Pod/Ear/Panicle weight at maturity (kg [dm]/ha)       2466          -99
      Number at maturity (no/m2)                             519          -99
      Unit wt at maturity (g [dm]/unit)                   0.3227          -99
      Number at maturity (no/unit)                          3.50          -99
      Tops weight at maturity (kg [dm]/ha)                  3145          -99
      By-product produced (stalk) at maturity (kg[dm]/ha    1470          -99
      Leaf area index, maximum                              2.99          -99
      Harvest index at maturity                            0.532          -99
      Threshing % at maturity                              67.88          -99
      Grain N at maturity (kg/ha)                             63          -99
      Tops N at maturity (kg/ha)                              88          -99
      Stem N at maturity (kg/ha)                               8          -99
      Grain N at maturity (%)                               3.78          -99
      Tops weight at anthesis (kg [dm]/ha)                   737          -99
      Tops N at anthesis (kg/ha)                              23          -99
      Leaf number per stem at maturity                     10.71          -99
      Grain oil at maturity (%)                             2.88          -99
      Canopy height (m)                                     0.90          -99
      Harvest maturity day (dap)                              59          -99
      Emergence day (dap)                                      5          -99


*ENVIRONMENTAL AND STRESS FACTORS

 |-----Development Phase------|--------------------------------------Environment--------------------------------------|-----------------Stress-----------------|
                              |---------------Average--------------|-----Cumulative-----|--------Count of days--------|          (0=Min, 1=Max Stress)         |
                         Time  Temp  Temp  Temp Solar Photop                Evapo    Pot TMIN TMIN TMAX TMAX TMAX RAIN|----Water----|---Nitrogen--|-Phosphorus-|
                         Span   Max   Min  Mean   Rad  [day]    CO2   Rain  Trans     ET   <    <    >    >    >    >   Photo         Photo         Photo
                         days    øC    øC    øC MJ/m2     hr    ppm     mm     mm     mm  0øC  2øC 30øC 32øC 34øC  0mm  synth Growth  synth Growth  synth Growth
----------------------------------------------------------------------------------------------------------------------------------------------------------------
 Emergence -First Flower   23  29.9  19.9  24.9  18.5  12.13  342.3   40.4    0.0    0.0    0    0   12    0    0    8  0.000  0.000  0.000  0.132  0.000  0.000
 First Flower-First Seed   10  29.2  19.3  24.3  18.0  12.17  342.5   65.2    0.0    0.0    0    0    2    0    0    6  0.000  0.000  0.000  0.000  0.000  0.000
 First Seed - Phys. Mat.   12  29.4  19.7  24.5  17.5  12.19  342.5    8.3    0.0    0.0    0    0    5    0    0    3  0.000  0.000  0.000  0.000  0.000  0.000
 Emergence  - Phys. Mat.   45  29.6  19.7  24.6  18.1  12.15  342.4  113.9    0.0    0.0    0    0   19    0    0   17  0.000  0.000  0.000  0.068  0.000  0.000


 Planting to Harvest       73  29.5  19.6  24.5  18.2  12.14  342.4  227.3    0.0    0.0    0    0   28    0    0   35  0.000  0.000  0.000  0.042  0.000  0.000
----------------------------------------------------------------------------------------------------------------------------------------------------------------

--------------------------------------------------------------------------------------------------------------

                  Dry bean YIELD :     1674 kg/ha    [Dry weight] 

**************************************************************************************************************

*DSSAT Cropping System Model Ver. 4.6.1.000 -release      JUL 11, 2017; 16:24:49
                                                                                
*RUN   5        : SIM                       CRGRO046 5\000005    1              
 MODEL          : CRGRO046 - Dry bean                                           
 EXPERIMENT     : 5\000005 BN PALMIRA_ANALISIS SENSIBILIDAD                     
 DATA PATH      : D:\B\0\00000                                                  
 TREATMENT  1   : SIM                       CRGRO046                            
                                                                                
                                                                                
 CROP           : Dry bean         CULTIVAR : Jatu Rong        ECOTYPE :ANDIND  
 STARTING DATE  : APR  1 1984                                                   
 PLANTING DATE  : APR 15 1984        PLANTS/m2 : 26.6     ROW SPACING :  60.cm  
 WEATHER        : PALM8034                                                      
 SOIL           : CCPA000030     TEXTURE : C     -   Silty Clay Loam            
 WATER BALANCE  : NOT SIMULATED ; NO H2O-STRESS                                 
 IRRIGATION     :                                                               
 NITROGEN BAL.  : NOT SIMULATED ; NO N-STRESS                                   
 N-FERTILIZER   :                                                               
 RESIDUE/MANURE :                                                               
 ENVIRONM. OPT. : DAYL=    0.00  SRAD=    0.00  TMAX=    0.00  TMIN=    0.00    
                  RAIN=    0.00  CO2 =    0.00  DEW =    0.00  WIND=    0.00    
 SIMULATION OPT : WATER   :N  NITROGEN:N  N-FIX:N  PHOSPH :N  PESTS  :N         
                  PHOTO   :L  ET      :R  INFIL:S  HYDROL :R  SOM    :G         
                  CO2 344ppm  NSWIT   :1  EVAP :S  SOIL   :2  STEMP  :D         
 MANAGEMENT OPT : PLANTING:A  IRRIG   :A  FERT :D  RESIDUE:N  HARVEST:M         
                  WEATHER :M  TILLAGE :N                                        
                                                                                
*SUMMARY OF SOIL AND GENETIC INPUT PARAMETERS                                   
                                                                                
 Dry bean   CULTIVAR :000005-Jatu Rong          ECOTYPE :ANDIND                 
 CSDVAR :12.17  PPSEN  : 0.05  EMG-FLW:22.00  FLW-FSD: 9.00  FSD-PHM : 11.00    
 WTPSD  :0.600  SDPDVR : 3.50  SDFDUR :15.00  PODDUR :10.00  XFRUIT  :  1.00    
 THRESH : 78.0  SDPRO  :0.235  SDLIP   : 0.030                                  


*SIMULATED CROP AND SOIL STATUS AT MAIN DEVELOPMENT STAGES

 RUN NO.     5     SIM                     

        CROP GROWTH     BIOMASS         LEAF   CROP N     STRESS      STRESS                                           
   DATE  AGE STAGE        kg/ha    LAI   NUM  kg/ha  %   H2O  Nitr Phos1 Phos2  RSTG                                   
 ------  --- ----------   -----  -----  ----  ---  ---  ----  ----  ----  ----  ----                                   
  1 APR    0 Start Sim        0   0.00   0.0    0  0.0  0.00  0.00  0.00  0.00     0
 15 APR    0 Sowing           0   0.00   0.0    0  0.0  0.00  0.00  0.00  0.00     0
 20 APR    5 Emergence       44   0.08   0.2    1  3.4  0.00  0.00  0.00  0.00     0
 20 APR    5 End Juven.      44   0.08   0.2    1  3.4  0.00  0.00  0.00  0.00     0
 23 APR    8 Unifoliate      49   0.09   1.1    2  3.3  0.00  0.64  0.00  0.00     0
 25 APR   10 Flower Ind      55   0.10   1.7    2  3.2  0.00  0.45  0.00  0.00     0
 14 MAY   29 First Flwr     782   2.05   7.1   24  3.1  0.00  0.01  0.00  0.00     1
 17 MAY   32 First Pod     1051   2.45   8.0   33  3.2  0.00  0.00  0.00  0.00     3
 24 MAY   39 First Seed    1940   3.03  10.0   58  3.0  0.00  0.00  0.00  0.00     5
 26 MAY   41 End Msnode    2197   3.04  10.6   66  3.0  0.00  0.00  0.00  0.00     5
 31 MAY   46 End Pod       2877   2.83  10.6   85  2.9  0.00  0.00  0.00  0.00     5
  3 JUN   49 End Leaf      3242   2.60  10.6   94  2.9  0.00  0.00  0.00  0.00     5
  5 JUN   51 Phys. Mat     3491   2.44  10.6   99  2.8  0.00  0.00  0.00  0.00     7
 14 JUN   60 Harv. Mat     3193   0.17  10.6   89  2.8  0.00  0.00  0.00  0.00     8
 14 JUN   60 Harvest       3193   0.17  10.6   89  2.8  0.00  0.00  0.00  0.00     8


*MAIN GROWTH AND DEVELOPMENT VARIABLES

@     VARIABLE                                         SIMULATED     MEASURED
      --------                                         ---------     --------
      Anthesis day (dap)                                      29          -99
      First pod day (dap)                                     32          -99
      First seed day (dap)                                    39          -99
      Physiological maturity day (dap)                        51          -99
      Yield at harvest maturity (kg [dm]/ha)                1654          -99
      Pod/Ear/Panicle weight at maturity (kg [dm]/ha)       2493          -99
      Number at maturity (no/m2)                             527          -99
      Unit wt at maturity (g [dm]/unit)                   0.3137          -99
      Number at maturity (no/unit)                          3.50          -99
      Tops weight at maturity (kg [dm]/ha)                  3193          -99
      By-product produced (stalk) at maturity (kg[dm]/ha    1540          -99
      Leaf area index, maximum                              3.04          -99
      Harvest index at maturity                            0.518          -99
      Threshing % at maturity                              66.34          -99
      Grain N at maturity (kg/ha)                             62          -99
      Tops N at maturity (kg/ha)                              89          -99
      Stem N at maturity (kg/ha)                               8          -99
      Grain N at maturity (%)                               3.73          -99
      Tops weight at anthesis (kg [dm]/ha)                   782          -99
      Tops N at anthesis (kg/ha)                              24          -99
      Leaf number per stem at maturity                     10.57          -99
      Grain oil at maturity (%)                             2.91          -99
      Canopy height (m)                                     0.90          -99
      Harvest maturity day (dap)                              60          -99
      Emergence day (dap)                                      5          -99


*ENVIRONMENTAL AND STRESS FACTORS

 |-----Development Phase------|--------------------------------------Environment--------------------------------------|-----------------Stress-----------------|
                              |---------------Average--------------|-----Cumulative-----|--------Count of days--------|          (0=Min, 1=Max Stress)         |
                         Time  Temp  Temp  Temp Solar Photop                Evapo    Pot TMIN TMIN TMAX TMAX TMAX RAIN|----Water----|---Nitrogen--|-Phosphorus-|
                         Span   Max   Min  Mean   Rad  [day]    CO2   Rain  Trans     ET   <    <    >    >    >    >   Photo         Photo         Photo
                         days    øC    øC    øC MJ/m2     hr    ppm     mm     mm     mm  0øC  2øC 30øC 32øC 34øC  0mm  synth Growth  synth Growth  synth Growth
----------------------------------------------------------------------------------------------------------------------------------------------------------------
 Emergence -First Flower   24  28.4  18.8  23.6  18.0  12.13  344.1   67.0    0.0    0.0    0    0    2    0    0   12  0.000  0.000  0.000  0.125  0.000  0.000
 First Flower-First Seed   10  28.5  18.8  23.7  17.8  12.17  344.3   32.3    0.0    0.0    0    0    1    0    0    7  0.000  0.000  0.000  0.000  0.000  0.000
 First Seed - Phys. Mat.   12  28.0  18.8  23.4  17.0  12.19  344.3   24.8    0.0    0.0    0    0    3    0    0    5  0.000  0.000  0.000  0.000  0.000  0.000
 Emergence  - Phys. Mat.   46  28.3  18.8  23.6  17.7  12.15  344.2  124.1    0.0    0.0    0    0    6    0    0   24  0.000  0.000  0.000  0.065  0.000  0.000


 Planting to Harvest       74  28.5  18.8  23.7  18.0  12.14  344.2  207.0    0.0    0.0    0    0   12    0    0   39  0.000  0.000  0.000  0.040  0.000  0.000
----------------------------------------------------------------------------------------------------------------------------------------------------------------

--------------------------------------------------------------------------------------------------------------

                  Dry bean YIELD :     1654 kg/ha    [Dry weight] 

**************************************************************************************************************

*DSSAT Cropping System Model Ver. 4.6.1.000 -release      JUL 11, 2017; 16:24:49
                                                                                
*RUN   6        : SIM                       CRGRO046 5\000005    1              
 MODEL          : CRGRO046 - Dry bean                                           
 EXPERIMENT     : 5\000005 BN PALMIRA_ANALISIS SENSIBILIDAD                     
 DATA PATH      : D:\B\0\00000                                                  
 TREATMENT  1   : SIM                       CRGRO046                            
                                                                                
                                                                                
 CROP           : Dry bean         CULTIVAR : Jatu Rong        ECOTYPE :ANDIND  
 STARTING DATE  : APR  2 1985                                                   
 PLANTING DATE  : APR 16 1985        PLANTS/m2 : 26.6     ROW SPACING :  60.cm  
 WEATHER        : PALM8034                                                      
 SOIL           : CCPA000030     TEXTURE : C     -   Silty Clay Loam            
 WATER BALANCE  : NOT SIMULATED ; NO H2O-STRESS                                 
 IRRIGATION     :                                                               
 NITROGEN BAL.  : NOT SIMULATED ; NO N-STRESS                                   
 N-FERTILIZER   :                                                               
 RESIDUE/MANURE :                                                               
 ENVIRONM. OPT. : DAYL=    0.00  SRAD=    0.00  TMAX=    0.00  TMIN=    0.00    
                  RAIN=    0.00  CO2 =    0.00  DEW =    0.00  WIND=    0.00    
 SIMULATION OPT : WATER   :N  NITROGEN:N  N-FIX:N  PHOSPH :N  PESTS  :N         
                  PHOTO   :L  ET      :R  INFIL:S  HYDROL :R  SOM    :G         
                  CO2 346ppm  NSWIT   :1  EVAP :S  SOIL   :2  STEMP  :D         
 MANAGEMENT OPT : PLANTING:A  IRRIG   :A  FERT :D  RESIDUE:N  HARVEST:M         
                  WEATHER :M  TILLAGE :N                                        
                                                                                
*SUMMARY OF SOIL AND GENETIC INPUT PARAMETERS                                   
                                                                                
 Dry bean   CULTIVAR :000005-Jatu Rong          ECOTYPE :ANDIND                 
 CSDVAR :12.17  PPSEN  : 0.05  EMG-FLW:22.00  FLW-FSD: 9.00  FSD-PHM : 11.00    
 WTPSD  :0.600  SDPDVR : 3.50  SDFDUR :15.00  PODDUR :10.00  XFRUIT  :  1.00    
 THRESH : 78.0  SDPRO  :0.235  SDLIP   : 0.030                                  


*SIMULATED CROP AND SOIL STATUS AT MAIN DEVELOPMENT STAGES

 RUN NO.     6     SIM                     

        CROP GROWTH     BIOMASS         LEAF   CROP N     STRESS      STRESS                                           
   DATE  AGE STAGE        kg/ha    LAI   NUM  kg/ha  %   H2O  Nitr Phos1 Phos2  RSTG                                   
 ------  --- ----------   -----  -----  ----  ---  ---  ----  ----  ----  ----  ----                                   
  2 APR    0 Start Sim        0   0.00   0.0    0  0.0  0.00  0.00  0.00  0.00     0
 16 APR    0 Sowing           0   0.00   0.0    0  0.0  0.00  0.00  0.00  0.00     0
 21 APR    5 Emergence       44   0.08   0.2    1  3.4  0.00  0.00  0.00  0.00     0
 21 APR    5 End Juven.      44   0.08   0.2    1  3.4  0.00  0.00  0.00  0.00     0
 24 APR    8 Unifoliate      48   0.09   1.1    2  3.3  0.00  0.66  0.00  0.00     0
 26 APR   10 Flower Ind      55   0.10   1.6    2  3.2  0.00  0.43  0.00  0.00     0
 15 MAY   29 First Flwr     798   2.05   7.1   25  3.1  0.00  0.01  0.00  0.00     1
 18 MAY   32 First Pod     1059   2.48   8.0   34  3.2  0.00  0.00  0.00  0.00     3
 25 MAY   39 First Seed    1981   3.09  10.1   60  3.0  0.00  0.00  0.00  0.00     5
 27 MAY   41 End Msnode    2274   3.11  10.7   68  3.0  0.00  0.00  0.00  0.00     5
 31 MAY   45 End Pod       2798   2.93  10.7   82  2.9  0.00  0.00  0.00  0.00     5
  4 JUN   49 End Leaf      3306   2.64  10.7   95  2.9  0.00  0.00  0.00  0.00     5
  6 JUN   51 Phys. Mat     3543   2.47  10.7  101  2.8  0.00  0.00  0.00  0.00     7
 15 JUN   60 Harv. Mat     3265   0.17  10.7   92  2.8  0.00  0.00  0.00  0.00     8
 15 JUN   60 Harvest       3265   0.17  10.7   92  2.8  0.00  0.00  0.00  0.00     8


*MAIN GROWTH AND DEVELOPMENT VARIABLES

@     VARIABLE                                         SIMULATED     MEASURED
      --------                                         ---------     --------
      Anthesis day (dap)                                      29          -99
      First pod day (dap)                                     32          -99
      First seed day (dap)                                    39          -99
      Physiological maturity day (dap)                        51          -99
      Yield at harvest maturity (kg [dm]/ha)                1758          -99
      Pod/Ear/Panicle weight at maturity (kg [dm]/ha)       2556          -99
      Number at maturity (no/m2)                             508          -99
      Unit wt at maturity (g [dm]/unit)                   0.3463          -99
      Number at maturity (no/unit)                          3.50          -99
      Tops weight at maturity (kg [dm]/ha)                  3265          -99
      By-product produced (stalk) at maturity (kg[dm]/ha    1510          -99
      Leaf area index, maximum                              3.11          -99
      Harvest index at maturity                            0.538          -99
      Threshing % at maturity                              68.76          -99
      Grain N at maturity (kg/ha)                             66          -99
      Tops N at maturity (kg/ha)                              92          -99
      Stem N at maturity (kg/ha)                               8          -99
      Grain N at maturity (%)                               3.75          -99
      Tops weight at anthesis (kg [dm]/ha)                   798          -99
      Tops N at anthesis (kg/ha)                              25          -99
      Leaf number per stem at maturity                     10.68          -99
      Grain oil at maturity (%)                             2.88          -99
      Canopy height (m)                                     0.89          -99
      Harvest maturity day (dap)                              60          -99
      Emergence day (dap)                                      5          -99


*ENVIRONMENTAL AND STRESS FACTORS

 |-----Development Phase------|--------------------------------------Environment--------------------------------------|-----------------Stress-----------------|
                              |---------------Average--------------|-----Cumulative-----|--------Count of days--------|          (0=Min, 1=Max Stress)         |
                         Time  Temp  Temp  Temp Solar Photop                Evapo    Pot TMIN TMIN TMAX TMAX TMAX RAIN|----Water----|---Nitrogen--|-Phosphorus-|
                         Span   Max   Min  Mean   Rad  [day]    CO2   Rain  Trans     ET   <    <    >    >    >    >   Photo         Photo         Photo
                         days    øC    øC    øC MJ/m2     hr    ppm     mm     mm     mm  0øC  2øC 30øC 32øC 34øC  0mm  synth Growth  synth Growth  synth Growth
----------------------------------------------------------------------------------------------------------------------------------------------------------------
 Emergence -First Flower   24  29.1  18.5  23.8  19.0  12.13  345.6   68.9    0.0    0.0    0    0    6    0    0   12  0.000  0.000  0.000  0.125  0.000  0.000
 First Flower-First Seed   10  29.0  19.0  24.0  18.0  12.17  345.7   18.6    0.0    0.0    0    0    3    0    0    6  0.000  0.000  0.000  0.000  0.000  0.000
 First Seed - Phys. Mat.   12  28.8  19.5  24.1  17.1  12.19  345.7   24.9    0.0    0.0    0    0    2    0    0    5  0.000  0.000  0.000  0.000  0.000  0.000
 Emergence  - Phys. Mat.   46  29.0  18.9  24.0  18.3  12.15  345.7  112.4    0.0    0.0    0    0   11    0    0   23  0.000  0.000  0.000  0.065  0.000  0.000


 Planting to Harvest       74  29.2  18.9  24.0  18.6  12.14  345.7  157.3    0.0    0.0    0    0   22    0    0   30  0.000  0.000  0.000  0.041  0.000  0.000
----------------------------------------------------------------------------------------------------------------------------------------------------------------

--------------------------------------------------------------------------------------------------------------

                  Dry bean YIELD :     1758 kg/ha    [Dry weight] 

**************************************************************************************************************

*DSSAT Cropping System Model Ver. 4.6.1.000 -release      JUL 11, 2017; 16:24:49
                                                                                
*RUN   7        : SIM                       CRGRO046 5\000005    1              
 MODEL          : CRGRO046 - Dry bean                                           
 EXPERIMENT     : 5\000005 BN PALMIRA_ANALISIS SENSIBILIDAD                     
 DATA PATH      : D:\B\0\00000                                                  
 TREATMENT  1   : SIM                       CRGRO046                            
                                                                                
                                                                                
 CROP           : Dry bean         CULTIVAR : Jatu Rong        ECOTYPE :ANDIND  
 STARTING DATE  : APR  2 1986                                                   
 PLANTING DATE  : APR 16 1986        PLANTS/m2 : 26.6     ROW SPACING :  60.cm  
 WEATHER        : PALM8034                                                      
 SOIL           : CCPA000030     TEXTURE : C     -   Silty Clay Loam            
 WATER BALANCE  : NOT SIMULATED ; NO H2O-STRESS                                 
 IRRIGATION     :                                                               
 NITROGEN BAL.  : NOT SIMULATED ; NO N-STRESS                                   
 N-FERTILIZER   :                                                               
 RESIDUE/MANURE :                                                               
 ENVIRONM. OPT. : DAYL=    0.00  SRAD=    0.00  TMAX=    0.00  TMIN=    0.00    
                  RAIN=    0.00  CO2 =    0.00  DEW =    0.00  WIND=    0.00    
 SIMULATION OPT : WATER   :N  NITROGEN:N  N-FIX:N  PHOSPH :N  PESTS  :N         
                  PHOTO   :L  ET      :R  INFIL:S  HYDROL :R  SOM    :G         
                  CO2 347ppm  NSWIT   :1  EVAP :S  SOIL   :2  STEMP  :D         
 MANAGEMENT OPT : PLANTING:A  IRRIG   :A  FERT :D  RESIDUE:N  HARVEST:M         
                  WEATHER :M  TILLAGE :N                                        
                                                                                
*SUMMARY OF SOIL AND GENETIC INPUT PARAMETERS                                   
                                                                                
 Dry bean   CULTIVAR :000005-Jatu Rong          ECOTYPE :ANDIND                 
 CSDVAR :12.17  PPSEN  : 0.05  EMG-FLW:22.00  FLW-FSD: 9.00  FSD-PHM : 11.00    
 WTPSD  :0.600  SDPDVR : 3.50  SDFDUR :15.00  PODDUR :10.00  XFRUIT  :  1.00    
 THRESH : 78.0  SDPRO  :0.235  SDLIP   : 0.030                                  


*SIMULATED CROP AND SOIL STATUS AT MAIN DEVELOPMENT STAGES

 RUN NO.     7     SIM                     

        CROP GROWTH     BIOMASS         LEAF   CROP N     STRESS      STRESS                                           
   DATE  AGE STAGE        kg/ha    LAI   NUM  kg/ha  %   H2O  Nitr Phos1 Phos2  RSTG                                   
 ------  --- ----------   -----  -----  ----  ---  ---  ----  ----  ----  ----  ----                                   
  2 APR    0 Start Sim        0   0.00   0.0    0  0.0  0.00  0.00  0.00  0.00     0
 16 APR    0 Sowing           0   0.00   0.0    0  0.0  0.00  0.00  0.00  0.00     0
 21 APR    5 Emergence       44   0.08   0.2    1  3.4  0.00  0.00  0.00  0.00     0
 21 APR    5 End Juven.      44   0.08   0.2    1  3.4  0.00  0.00  0.00  0.00     0
 24 APR    8 Unifoliate      48   0.09   1.1    2  3.3  0.00  0.66  0.00  0.00     0
 26 APR   10 Flower Ind      55   0.10   1.7    2  3.2  0.00  0.44  0.00  0.00     0
 14 MAY   28 First Flwr     752   1.94   7.1   24  3.1  0.00  0.01  0.00  0.00     1
 17 MAY   31 First Pod     1020   2.37   8.0   32  3.2  0.00  0.00  0.00  0.00     3
 24 MAY   38 First Seed    1948   2.99  10.1   59  3.0  0.00  0.00  0.00  0.00     5
 26 MAY   40 End Msnode    2241   3.02  10.7   67  3.0  0.00  0.00  0.00  0.00     5
 31 MAY   45 End Pod       2923   2.81  10.7   86  2.9  0.00  0.00  0.00  0.00     5
  3 JUN   48 End Leaf      3290   2.60  10.7   95  2.9  0.00  0.00  0.00  0.00     5
  5 JUN   50 Phys. Mat     3540   2.44  10.7  100  2.8  0.00  0.00  0.00  0.00     7
 14 JUN   59 Harv. Mat     3201   0.17  10.7   89  2.8  0.00  0.00  0.00  0.00     8
 14 JUN   59 Harvest       3201   0.17  10.7   89  2.8  0.00  0.00  0.00  0.00     8


*MAIN GROWTH AND DEVELOPMENT VARIABLES

@     VARIABLE                                         SIMULATED     MEASURED
      --------                                         ---------     --------
      Anthesis day (dap)                                      28          -99
      First pod day (dap)                                     31          -99
      First seed day (dap)                                    38          -99
      Physiological maturity day (dap)                        50          -99
      Yield at harvest maturity (kg [dm]/ha)                1647          -99
      Pod/Ear/Panicle weight at maturity (kg [dm]/ha)       2462          -99
      Number at maturity (no/m2)                             523          -99
      Unit wt at maturity (g [dm]/unit)                   0.3151          -99
      Number at maturity (no/unit)                          3.50          -99
      Tops weight at maturity (kg [dm]/ha)                  3201          -99
      By-product produced (stalk) at maturity (kg[dm]/ha    1550          -99
      Leaf area index, maximum                              3.02          -99
      Harvest index at maturity                            0.515          -99
      Threshing % at maturity                              66.91          -99
      Grain N at maturity (kg/ha)                             61          -99
      Tops N at maturity (kg/ha)                              89          -99
      Stem N at maturity (kg/ha)                               9          -99
      Grain N at maturity (%)                               3.73          -99
      Tops weight at anthesis (kg [dm]/ha)                   752          -99
      Tops N at anthesis (kg/ha)                              24          -99
      Leaf number per stem at maturity                     10.71          -99
      Grain oil at maturity (%)                             2.90          -99
      Canopy height (m)                                     0.90          -99
      Harvest maturity day (dap)                              59          -99
      Emergence day (dap)                                      5          -99


*ENVIRONMENTAL AND STRESS FACTORS

 |-----Development Phase------|--------------------------------------Environment--------------------------------------|-----------------Stress-----------------|
                              |---------------Average--------------|-----Cumulative-----|--------Count of days--------|          (0=Min, 1=Max Stress)         |
                         Time  Temp  Temp  Temp Solar Photop                Evapo    Pot TMIN TMIN TMAX TMAX TMAX RAIN|----Water----|---Nitrogen--|-Phosphorus-|
                         Span   Max   Min  Mean   Rad  [day]    CO2   Rain  Trans     ET   <    <    >    >    >    >   Photo         Photo         Photo
                         days    øC    øC    øC MJ/m2     hr    ppm     mm     mm     mm  0øC  2øC 30øC 32øC 34øC  0mm  synth Growth  synth Growth  synth Growth
----------------------------------------------------------------------------------------------------------------------------------------------------------------
 Emergence -First Flower   23  30.5  19.4  24.9  19.4  12.13  346.8   62.8    0.0    0.0    0    0   14    4    0   14  0.000  0.000  0.000  0.134  0.000  0.000
 First Flower-First Seed   10  31.4  19.2  25.3  19.9  12.17  346.9   36.5    0.0    0.0    0    0   10    1    0    5  0.000  0.000  0.000  0.000  0.000  0.000
 First Seed - Phys. Mat.   12  29.4  18.9  24.1  18.2  12.19  346.9  104.9    0.0    0.0    0    0    6    0    0    6  0.000  0.000  0.000  0.000  0.000  0.000
 Emergence  - Phys. Mat.   45  30.4  19.2  24.8  19.2  12.15  346.9  204.2    0.0    0.0    0    0   30    5    0   25  0.000  0.000  0.000  0.068  0.000  0.000


 Planting to Harvest       73  29.6  19.2  24.4  18.6  12.14  346.8  310.1    0.0    0.0    0    0   35    5    0   40  0.000  0.000  0.000  0.042  0.000  0.000
----------------------------------------------------------------------------------------------------------------------------------------------------------------

--------------------------------------------------------------------------------------------------------------

                  Dry bean YIELD :     1647 kg/ha    [Dry weight] 

**************************************************************************************************************

*DSSAT Cropping System Model Ver. 4.6.1.000 -release      JUL 11, 2017; 16:24:49
                                                                                
*RUN   8        : SIM                       CRGRO046 5\000005    1              
 MODEL          : CRGRO046 - Dry bean                                           
 EXPERIMENT     : 5\000005 BN PALMIRA_ANALISIS SENSIBILIDAD                     
 DATA PATH      : D:\B\0\00000                                                  
 TREATMENT  1   : SIM                       CRGRO046                            
                                                                                
                                                                                
 CROP           : Dry bean         CULTIVAR : Jatu Rong        ECOTYPE :ANDIND  
 STARTING DATE  : APR  2 1987                                                   
 PLANTING DATE  : APR 16 1987        PLANTS/m2 : 26.6     ROW SPACING :  60.cm  
 WEATHER        : PALM8034                                                      
 SOIL           : CCPA000030     TEXTURE : C     -   Silty Clay Loam            
 WATER BALANCE  : NOT SIMULATED ; NO H2O-STRESS                                 
 IRRIGATION     :                                                               
 NITROGEN BAL.  : NOT SIMULATED ; NO N-STRESS                                   
 N-FERTILIZER   :                                                               
 RESIDUE/MANURE :                                                               
 ENVIRONM. OPT. : DAYL=    0.00  SRAD=    0.00  TMAX=    0.00  TMIN=    0.00    
                  RAIN=    0.00  CO2 =    0.00  DEW =    0.00  WIND=    0.00    
 SIMULATION OPT : WATER   :N  NITROGEN:N  N-FIX:N  PHOSPH :N  PESTS  :N         
                  PHOTO   :L  ET      :R  INFIL:S  HYDROL :R  SOM    :G         
                  CO2 348ppm  NSWIT   :1  EVAP :S  SOIL   :2  STEMP  :D         
 MANAGEMENT OPT : PLANTING:A  IRRIG   :A  FERT :D  RESIDUE:N  HARVEST:M         
                  WEATHER :M  TILLAGE :N                                        
                                                                                
*SUMMARY OF SOIL AND GENETIC INPUT PARAMETERS                                   
                                                                                
 Dry bean   CULTIVAR :000005-Jatu Rong          ECOTYPE :ANDIND                 
 CSDVAR :12.17  PPSEN  : 0.05  EMG-FLW:22.00  FLW-FSD: 9.00  FSD-PHM : 11.00    
 WTPSD  :0.600  SDPDVR : 3.50  SDFDUR :15.00  PODDUR :10.00  XFRUIT  :  1.00    
 THRESH : 78.0  SDPRO  :0.235  SDLIP   : 0.030                                  


*SIMULATED CROP AND SOIL STATUS AT MAIN DEVELOPMENT STAGES

 RUN NO.     8     SIM                     

        CROP GROWTH     BIOMASS         LEAF   CROP N     STRESS      STRESS                                           
   DATE  AGE STAGE        kg/ha    LAI   NUM  kg/ha  %   H2O  Nitr Phos1 Phos2  RSTG                                   
 ------  --- ----------   -----  -----  ----  ---  ---  ----  ----  ----  ----  ----                                   
  2 APR    0 Start Sim        0   0.00   0.0    0  0.0  0.00  0.00  0.00  0.00     0
 16 APR    0 Sowing           0   0.00   0.0    0  0.0  0.00  0.00  0.00  0.00     0
 21 APR    5 Emergence       44   0.08   0.2    1  3.4  0.00  0.00  0.00  0.00     0
 21 APR    5 End Juven.      44   0.08   0.2    1  3.4  0.00  0.00  0.00  0.00     0
 24 APR    8 Unifoliate      49   0.09   1.1    2  3.3  0.00  0.65  0.00  0.00     0
 26 APR   10 Flower Ind      56   0.10   1.7    2  3.2  0.00  0.43  0.00  0.00     0
 14 MAY   28 First Flwr     784   2.00   7.1   25  3.1  0.00  0.01  0.00  0.00     1
 17 MAY   31 First Pod     1059   2.44   8.0   34  3.2  0.00  0.00  0.00  0.00     3
 24 MAY   38 First Seed    2003   3.12  10.1   61  3.0  0.00  0.00  0.00  0.00     5
 26 MAY   40 End Msnode    2297   3.14  10.7   69  3.0  0.00  0.00  0.00  0.00     5
 31 MAY   45 End Pod       2999   2.93  10.7   88  2.9  0.00  0.00  0.00  0.00     5
  3 JUN   48 End Leaf      3371   2.68  10.7   97  2.9  0.00  0.00  0.00  0.00     5
  5 JUN   50 Phys. Mat     3601   2.51  10.7  102  2.8  0.00  0.00  0.00  0.00     7
 14 JUN   59 Harv. Mat     3292   0.17  10.7   93  2.8  0.00  0.00  0.00  0.00     8
 14 JUN   59 Harvest       3292   0.17  10.7   93  2.8  0.00  0.00  0.00  0.00     8


*MAIN GROWTH AND DEVELOPMENT VARIABLES

@     VARIABLE                                         SIMULATED     MEASURED
      --------                                         ---------     --------
      Anthesis day (dap)                                      28          -99
      First pod day (dap)                                     31          -99
      First seed day (dap)                                    38          -99
      Physiological maturity day (dap)                        50          -99
      Yield at harvest maturity (kg [dm]/ha)                1781          -99
      Pod/Ear/Panicle weight at maturity (kg [dm]/ha)       2538          -99
      Number at maturity (no/m2)                             507          -99
      Unit wt at maturity (g [dm]/unit)                   0.3513          -99
      Number at maturity (no/unit)                          3.50          -99
      Tops weight at maturity (kg [dm]/ha)                  3292          -99
      By-product produced (stalk) at maturity (kg[dm]/ha    1510          -99
      Leaf area index, maximum                              3.14          -99
      Harvest index at maturity                            0.541          -99
      Threshing % at maturity                              70.19          -99
      Grain N at maturity (kg/ha)                             68          -99
      Tops N at maturity (kg/ha)                              93          -99
      Stem N at maturity (kg/ha)                               8          -99
      Grain N at maturity (%)                               3.79          -99
      Tops weight at anthesis (kg [dm]/ha)                   784          -99
      Tops N at anthesis (kg/ha)                              25          -99
      Leaf number per stem at maturity                     10.71          -99
      Grain oil at maturity (%)                             2.89          -99
      Canopy height (m)                                     0.89          -99
      Harvest maturity day (dap)                              59          -99
      Emergence day (dap)                                      5          -99


*ENVIRONMENTAL AND STRESS FACTORS

 |-----Development Phase------|--------------------------------------Environment--------------------------------------|-----------------Stress-----------------|
                              |---------------Average--------------|-----Cumulative-----|--------Count of days--------|          (0=Min, 1=Max Stress)         |
                         Time  Temp  Temp  Temp Solar Photop                Evapo    Pot TMIN TMIN TMAX TMAX TMAX RAIN|----Water----|---Nitrogen--|-Phosphorus-|
                         Span   Max   Min  Mean   Rad  [day]    CO2   Rain  Trans     ET   <    <    >    >    >    >   Photo         Photo         Photo
                         days    øC    øC    øC MJ/m2     hr    ppm     mm     mm     mm  0øC  2øC 30øC 32øC 34øC  0mm  synth Growth  synth Growth  synth Growth
----------------------------------------------------------------------------------------------------------------------------------------------------------------
 Emergence -First Flower   23  31.0  18.9  25.0  20.3  12.13  348.5  129.5    0.0    0.0    0    0   17    5    1   15  0.000  0.000  0.000  0.128  0.000  0.000
 First Flower-First Seed   10  31.7  19.4  25.5  20.1  12.17  348.6   66.2    0.0    0.0    0    0   10    5    0    5  0.000  0.000  0.000  0.000  0.000  0.000
 First Seed - Phys. Mat.   12  30.5  19.7  25.1  18.5  12.19  348.6   36.2    0.0    0.0    0    0    7    3    0    3  0.000  0.000  0.000  0.000  0.000  0.000
 Emergence  - Phys. Mat.   45  31.1  19.2  25.1  19.8  12.15  348.6  231.9    0.0    0.0    0    0   34   13    1   23  0.000  0.000  0.000  0.066  0.000  0.000


 Planting to Harvest       73  31.1  19.4  25.2  19.8  12.14  348.5  239.2    0.0    0.0    0    0   55   20    1   29  0.000  0.000  0.000  0.040  0.000  0.000
----------------------------------------------------------------------------------------------------------------------------------------------------------------

--------------------------------------------------------------------------------------------------------------

                  Dry bean YIELD :     1781 kg/ha    [Dry weight] 

**************************************************************************************************************

*DSSAT Cropping System Model Ver. 4.6.1.000 -release      JUL 11, 2017; 16:24:49
                                                                                
*RUN   9        : SIM                       CRGRO046 5\000005    1              
 MODEL          : CRGRO046 - Dry bean                                           
 EXPERIMENT     : 5\000005 BN PALMIRA_ANALISIS SENSIBILIDAD                     
 DATA PATH      : D:\B\0\00000                                                  
 TREATMENT  1   : SIM                       CRGRO046                            
                                                                                
                                                                                
 CROP           : Dry bean         CULTIVAR : Jatu Rong        ECOTYPE :ANDIND  
 STARTING DATE  : APR  1 1988                                                   
 PLANTING DATE  : APR 15 1988        PLANTS/m2 : 26.6     ROW SPACING :  60.cm  
 WEATHER        : PALM8034                                                      
 SOIL           : CCPA000030     TEXTURE : C     -   Silty Clay Loam            
 WATER BALANCE  : NOT SIMULATED ; NO H2O-STRESS                                 
 IRRIGATION     :                                                               
 NITROGEN BAL.  : NOT SIMULATED ; NO N-STRESS                                   
 N-FERTILIZER   :                                                               
 RESIDUE/MANURE :                                                               
 ENVIRONM. OPT. : DAYL=    0.00  SRAD=    0.00  TMAX=    0.00  TMIN=    0.00    
                  RAIN=    0.00  CO2 =    0.00  DEW =    0.00  WIND=    0.00    
 SIMULATION OPT : WATER   :N  NITROGEN:N  N-FIX:N  PHOSPH :N  PESTS  :N         
                  PHOTO   :L  ET      :R  INFIL:S  HYDROL :R  SOM    :G         
                  CO2 351ppm  NSWIT   :1  EVAP :S  SOIL   :2  STEMP  :D         
 MANAGEMENT OPT : PLANTING:A  IRRIG   :A  FERT :D  RESIDUE:N  HARVEST:M         
                  WEATHER :M  TILLAGE :N                                        
                                                                                
*SUMMARY OF SOIL AND GENETIC INPUT PARAMETERS                                   
                                                                                
 Dry bean   CULTIVAR :000005-Jatu Rong          ECOTYPE :ANDIND                 
 CSDVAR :12.17  PPSEN  : 0.05  EMG-FLW:22.00  FLW-FSD: 9.00  FSD-PHM : 11.00    
 WTPSD  :0.600  SDPDVR : 3.50  SDFDUR :15.00  PODDUR :10.00  XFRUIT  :  1.00    
 THRESH : 78.0  SDPRO  :0.235  SDLIP   : 0.030                                  


*SIMULATED CROP AND SOIL STATUS AT MAIN DEVELOPMENT STAGES

 RUN NO.     9     SIM                     

        CROP GROWTH     BIOMASS         LEAF   CROP N     STRESS      STRESS                                           
   DATE  AGE STAGE        kg/ha    LAI   NUM  kg/ha  %   H2O  Nitr Phos1 Phos2  RSTG                                   
 ------  --- ----------   -----  -----  ----  ---  ---  ----  ----  ----  ----  ----                                   
  1 APR    0 Start Sim        0   0.00   0.0    0  0.0  0.00  0.00  0.00  0.00     0
 15 APR    0 Sowing           0   0.00   0.0    0  0.0  0.00  0.00  0.00  0.00     0
 20 APR    5 Emergence       44   0.08   0.2    1  3.4  0.00  0.00  0.00  0.00     0
 20 APR    5 End Juven.      44   0.08   0.2    1  3.4  0.00  0.00  0.00  0.00     0
 23 APR    8 Unifoliate      48   0.09   1.0    2  3.3  0.00  0.65  0.00  0.00     0
 25 APR   10 Flower Ind      56   0.10   1.6    2  3.2  0.00  0.41  0.00  0.00     0
 13 MAY   28 First Flwr     713   1.90   7.0   22  3.1  0.00  0.02  0.00  0.00     1
 16 MAY   31 First Pod      964   2.33   7.9   31  3.2  0.00  0.00  0.00  0.00     3
 23 MAY   38 First Seed    1838   2.94   9.9   56  3.0  0.00  0.00  0.00  0.00     5
 25 MAY   40 End Msnode    2125   2.97  10.5   64  3.0  0.00  0.00  0.00  0.00     5
 30 MAY   45 End Pod       2758   2.75  10.5   81  2.9  0.00  0.00  0.00  0.00     5
  2 JUN   48 End Leaf      3141   2.54  10.5   91  2.9  0.00  0.00  0.00  0.00     5
  5 JUN   51 Phys. Mat     3512   2.30  10.5   99  2.8  0.00  0.00  0.00  0.00     7
 14 JUN   60 Harv. Mat     3261   0.16  10.5   92  2.8  0.00  0.00  0.00  0.00     8
 14 JUN   60 Harvest       3261   0.16  10.5   92  2.8  0.00  0.00  0.00  0.00     8


*MAIN GROWTH AND DEVELOPMENT VARIABLES

@     VARIABLE                                         SIMULATED     MEASURED
      --------                                         ---------     --------
      Anthesis day (dap)                                      28          -99
      First pod day (dap)                                     31          -99
      First seed day (dap)                                    38          -99
      Physiological maturity day (dap)                        51          -99
      Yield at harvest maturity (kg [dm]/ha)                1719          -99
      Pod/Ear/Panicle weight at maturity (kg [dm]/ha)       2570          -99
      Number at maturity (no/m2)                             538          -99
      Unit wt at maturity (g [dm]/unit)                   0.3198          -99
      Number at maturity (no/unit)                          3.50          -99
      Tops weight at maturity (kg [dm]/ha)                  3261          -99
      By-product produced (stalk) at maturity (kg[dm]/ha    1540          -99
      Leaf area index, maximum                              2.97          -99
      Harvest index at maturity                            0.527          -99
      Threshing % at maturity                              66.91          -99
      Grain N at maturity (kg/ha)                             66          -99
      Tops N at maturity (kg/ha)                              92          -99
      Stem N at maturity (kg/ha)                               8          -99
      Grain N at maturity (%)                               3.83          -99
      Tops weight at anthesis (kg [dm]/ha)                   713          -99
      Tops N at anthesis (kg/ha)                              22          -99
      Leaf number per stem at maturity                     10.52          -99
      Grain oil at maturity (%)                             2.82          -99
      Canopy height (m)                                     0.87          -99
      Harvest maturity day (dap)                              60          -99
      Emergence day (dap)                                      5          -99


*ENVIRONMENTAL AND STRESS FACTORS

 |-----Development Phase------|--------------------------------------Environment--------------------------------------|-----------------Stress-----------------|
                              |---------------Average--------------|-----Cumulative-----|--------Count of days--------|          (0=Min, 1=Max Stress)         |
                         Time  Temp  Temp  Temp Solar Photop                Evapo    Pot TMIN TMIN TMAX TMAX TMAX RAIN|----Water----|---Nitrogen--|-Phosphorus-|
                         Span   Max   Min  Mean   Rad  [day]    CO2   Rain  Trans     ET   <    <    >    >    >    >   Photo         Photo         Photo
                         days    øC    øC    øC MJ/m2     hr    ppm     mm     mm     mm  0øC  2øC 30øC 32øC 34øC  0mm  synth Growth  synth Growth  synth Growth
----------------------------------------------------------------------------------------------------------------------------------------------------------------
 Emergence -First Flower   23  29.3  19.4  24.4  18.4  12.13  351.0   68.8    0.0    0.0    0    0    6    0    0    8  0.000  0.000  0.000  0.133  0.000  0.000
 First Flower-First Seed   10  29.0  19.0  24.0  18.0  12.17  351.2   16.5    0.0    0.0    0    0    2    0    0    4  0.000  0.000  0.000  0.000  0.000  0.000
 First Seed - Phys. Mat.   13  30.2  18.9  24.5  18.8  12.19  351.2  117.3    0.0    0.0    0    0    7    4    1    8  0.000  0.000  0.000  0.000  0.000  0.000
 Emergence  - Phys. Mat.   46  29.5  19.2  24.3  18.4  12.15  351.1  202.6    0.0    0.0    0    0   15    4    1   20  0.000  0.000  0.000  0.067  0.000  0.000


 Planting to Harvest       74  29.5  19.3  24.4  18.4  12.14  351.1  343.9    0.0    0.0    0    0   29    6    1   33  0.000  0.000  0.000  0.041  0.000  0.000
----------------------------------------------------------------------------------------------------------------------------------------------------------------

--------------------------------------------------------------------------------------------------------------

                  Dry bean YIELD :     1719 kg/ha    [Dry weight] 

**************************************************************************************************************

*DSSAT Cropping System Model Ver. 4.6.1.000 -release      JUL 11, 2017; 16:24:49
                                                                                
*RUN  10        : SIM                       CRGRO046 5\000005    1              
 MODEL          : CRGRO046 - Dry bean                                           
 EXPERIMENT     : 5\000005 BN PALMIRA_ANALISIS SENSIBILIDAD                     
 DATA PATH      : D:\B\0\00000                                                  
 TREATMENT  1   : SIM                       CRGRO046                            
[...]
      Emergence day (dap)                                      5          -99


*ENVIRONMENTAL AND STRESS FACTORS

 |-----Development Phase------|--------------------------------------Environment--------------------------------------|-----------------Stress-----------------|
                              |---------------Average--------------|-----Cumulative-----|--------Count of days--------|          (0=Min, 1=Max Stress)         |
                         Time  Temp  Temp  Temp Solar Photop                Evapo    Pot TMIN TMIN TMAX TMAX TMAX RAIN|----Water----|---Nitrogen--|-Phosphorus-|
                         Span   Max   Min  Mean   Rad  [day]    CO2   Rain  Trans     ET   <    <    >    >    >    >   Photo         Photo         Photo
                         days    øC    øC    øC MJ/m2     hr    ppm     mm     mm     mm  0øC  2øC 30øC 32øC 34øC  0mm  synth Growth  synth Growth  synth Growth
----------------------------------------------------------------------------------------------------------------------------------------------------------------
 Emergence -First Flower   23  30.3  19.1  24.7  19.5  12.13  386.9   51.1    0.0    0.0    0    0   16    2    0   14  0.000  0.000  0.000  0.122  0.000  0.000
 First Flower-First Seed   10  30.8  18.7  24.8  19.9  12.17  387.1    1.6    0.0    0.0    0    0    9    0    0    1  0.000  0.000  0.000  0.000  0.000  0.000
 First Seed - Phys. Mat.   12  30.8  19.2  25.0  19.2  12.19  387.1   20.5    0.0    0.0    0    0    8    3    0    3  0.000  0.000  0.000  0.000  0.000  0.000
 Emergence  - Phys. Mat.   45  30.6  19.0  24.8  19.5  12.15  387.0   73.2    0.0    0.0    0    0   33    5    0   18  0.000  0.000  0.000  0.063  0.000  0.000


 Planting to Harvest       73  30.2  19.2  24.7  19.1  12.14  387.0  105.7    0.0    0.0    0    0   44    5    0   32  0.000  0.000  0.000  0.039  0.000  0.000
----------------------------------------------------------------------------------------------------------------------------------------------------------------

--------------------------------------------------------------------------------------------------------------

                  Dry bean YIELD :     1743 kg/ha    [Dry weight] 

**************************************************************************************************************

*DSSAT Cropping System Model Ver. 4.6.1.000 -release      JUL 11, 2017; 16:24:49
                                                                                
*RUN  31        : SIM                       CRGRO046 5\000005    1              
 MODEL          : CRGRO046 - Dry bean                                           
 EXPERIMENT     : 5\000005 BN PALMIRA_ANALISIS SENSIBILIDAD                     
 DATA PATH      : D:\B\0\00000                                                  
 TREATMENT  1   : SIM                       CRGRO046                            
                                                                                
                                                                                
 CROP           : Dry bean         CULTIVAR : Jatu Rong        ECOTYPE :ANDIND  
 STARTING DATE  : APR  2 2010                                                   
 PLANTING DATE  : APR 16 2010        PLANTS/m2 : 26.6     ROW SPACING :  60.cm  
 WEATHER        : PALM8034                                                      
 SOIL           : CCPA000030     TEXTURE : C     -   Silty Clay Loam            
 WATER BALANCE  : NOT SIMULATED ; NO H2O-STRESS                                 
 IRRIGATION     :                                                               
 NITROGEN BAL.  : NOT SIMULATED ; NO N-STRESS                                   
 N-FERTILIZER   :                                                               
 RESIDUE/MANURE :                                                               
 ENVIRONM. OPT. : DAYL=    0.00  SRAD=    0.00  TMAX=    0.00  TMIN=    0.00    
                  RAIN=    0.00  CO2 =    0.00  DEW =    0.00  WIND=    0.00    
 SIMULATION OPT : WATER   :N  NITROGEN:N  N-FIX:N  PHOSPH :N  PESTS  :N         
                  PHOTO   :L  ET      :R  INFIL:S  HYDROL :R  SOM    :G         
                  CO2 389ppm  NSWIT   :1  EVAP :S  SOIL   :2  STEMP  :D         
 MANAGEMENT OPT : PLANTING:A  IRRIG   :A  FERT :D  RESIDUE:N  HARVEST:M         
                  WEATHER :M  TILLAGE :N                                        
                                                                                
*SUMMARY OF SOIL AND GENETIC INPUT PARAMETERS                                   
                                                                                
 Dry bean   CULTIVAR :000005-Jatu Rong          ECOTYPE :ANDIND                 
 CSDVAR :12.17  PPSEN  : 0.05  EMG-FLW:22.00  FLW-FSD: 9.00  FSD-PHM : 11.00    
 WTPSD  :0.600  SDPDVR : 3.50  SDFDUR :15.00  PODDUR :10.00  XFRUIT  :  1.00    
 THRESH : 78.0  SDPRO  :0.235  SDLIP   : 0.030                                  


*SIMULATED CROP AND SOIL STATUS AT MAIN DEVELOPMENT STAGES

 RUN NO.    31     SIM                     

        CROP GROWTH     BIOMASS         LEAF   CROP N     STRESS      STRESS                                           
   DATE  AGE STAGE        kg/ha    LAI   NUM  kg/ha  %   H2O  Nitr Phos1 Phos2  RSTG                                   
 ------  --- ----------   -----  -----  ----  ---  ---  ----  ----  ----  ----  ----                                   
  2 APR    0 Start Sim        0   0.00   0.0    0  0.0  0.00  0.00  0.00  0.00     0
 16 APR    0 Sowing           0   0.00   0.0    0  0.0  0.00  0.00  0.00  0.00     0
 21 APR    5 Emergence       44   0.08   0.2    1  3.4  0.00  0.00  0.00  0.00     0
 21 APR    5 End Juven.      44   0.08   0.2    1  3.4  0.00  0.00  0.00  0.00     0
 24 APR    8 Unifoliate      49   0.09   1.1    2  3.3  0.00  0.66  0.00  0.00     0
 26 APR   10 Flower Ind      55   0.10   1.7    2  3.1  0.00  0.45  0.00  0.00     0
 14 MAY   28 First Flwr     795   2.10   7.2   25  3.1  0.00  0.01  0.00  0.00     1
 16 MAY   30 First Pod      981   2.42   7.8   31  3.2  0.00  0.00  0.00  0.00     3
 23 MAY   37 First Seed    1857   3.16   9.9   56  3.0  0.00  0.00  0.00  0.00     5
 25 MAY   39 End Msnode    2167   3.20  10.6   65  3.0  0.00  0.00  0.00  0.00     5
 30 MAY   44 End Pod       2839   2.98  10.6   83  2.9  0.00  0.00  0.00  0.00     5
  2 JUN   47 End Leaf      3228   2.75  10.6   93  2.9  0.00  0.00  0.00  0.00     5
  5 JUN   50 Phys. Mat     3614   2.50  10.6  102  2.8  0.00  0.00  0.00  0.00     7
 14 JUN   59 Harv. Mat     3367   0.17  10.6   95  2.8  0.00  0.00  0.00  0.00     8
 14 JUN   59 Harvest       3367   0.17  10.6   95  2.8  0.00  0.00  0.00  0.00     8


*MAIN GROWTH AND DEVELOPMENT VARIABLES

@     VARIABLE                                         SIMULATED     MEASURED
      --------                                         ---------     --------
      Anthesis day (dap)                                      28          -99
      First pod day (dap)                                     30          -99
      First seed day (dap)                                    37          -99
      Physiological maturity day (dap)                        50          -99
      Yield at harvest maturity (kg [dm]/ha)                1815          -99
      Pod/Ear/Panicle weight at maturity (kg [dm]/ha)       2652          -99
      Number at maturity (no/m2)                             532          -99
      Unit wt at maturity (g [dm]/unit)                   0.3411          -99
      Number at maturity (no/unit)                          3.50          -99
      Tops weight at maturity (kg [dm]/ha)                  3367          -99
      By-product produced (stalk) at maturity (kg[dm]/ha    1550          -99
      Leaf area index, maximum                              3.20          -99
      Harvest index at maturity                            0.539          -99
      Threshing % at maturity                              68.42          -99
      Grain N at maturity (kg/ha)                             68          -99
      Tops N at maturity (kg/ha)                              95          -99
      Stem N at maturity (kg/ha)                               8          -99
      Grain N at maturity (%)                               3.77          -99
      Tops weight at anthesis (kg [dm]/ha)                   795          -99
      Tops N at anthesis (kg/ha)                              25          -99
      Leaf number per stem at maturity                     10.56          -99
      Grain oil at maturity (%)                             2.89          -99
      Canopy height (m)                                     0.90          -99
      Harvest maturity day (dap)                              59          -99
      Emergence day (dap)                                      5          -99


*ENVIRONMENTAL AND STRESS FACTORS

 |-----Development Phase------|--------------------------------------Environment--------------------------------------|-----------------Stress-----------------|
                              |---------------Average--------------|-----Cumulative-----|--------Count of days--------|          (0=Min, 1=Max Stress)         |
                         Time  Temp  Temp  Temp Solar Photop                Evapo    Pot TMIN TMIN TMAX TMAX TMAX RAIN|----Water----|---Nitrogen--|-Phosphorus-|
                         Span   Max   Min  Mean   Rad  [day]    CO2   Rain  Trans     ET   <    <    >    >    >    >   Photo         Photo         Photo
                         days    øC    øC    øC MJ/m2     hr    ppm     mm     mm     mm  0øC  2øC 30øC 32øC 34øC  0mm  synth Growth  synth Growth  synth Growth
----------------------------------------------------------------------------------------------------------------------------------------------------------------
 Emergence -First Flower   23  29.7  20.2  24.9  17.9  12.13  389.4  122.8    0.0    0.0    0    0   12    1    0   10  0.000  0.000  0.000  0.130  0.000  0.000
 First Flower-First Seed    9  29.6  20.9  25.3  16.7  12.17  389.6   38.8    0.0    0.0    0    0    6    0    0    5  0.000  0.000  0.000  0.000  0.000  0.000
 First Seed - Phys. Mat.   13  28.6  19.5  24.0  16.8  12.19  389.6   53.3    0.0    0.0    0    0    5    0    0    7  0.000  0.000  0.000  0.000  0.000  0.000
 Emergence  - Phys. Mat.   45  29.3  20.1  24.7  17.4  12.15  389.5  214.9    0.0    0.0    0    0   23    1    0   22  0.000  0.000  0.000  0.066  0.000  0.000


 Planting to Harvest       73  29.4  19.9  24.7  17.8  12.14  389.4  363.2    0.0    0.0    0    0   37    3    0   38  0.000  0.000  0.000  0.041  0.000  0.000
----------------------------------------------------------------------------------------------------------------------------------------------------------------

--------------------------------------------------------------------------------------------------------------

                  Dry bean YIELD :     1815 kg/ha    [Dry weight] 

**************************************************************************************************************

*DSSAT Cropping System Model Ver. 4.6.1.000 -release      JUL 11, 2017; 16:24:49
                                                                                
*RUN  32        : SIM                       CRGRO046 5\000005    1              
 MODEL          : CRGRO046 - Dry bean                                           
 EXPERIMENT     : 5\000005 BN PALMIRA_ANALISIS SENSIBILIDAD                     
 DATA PATH      : D:\B\0\00000                                                  
 TREATMENT  1   : SIM                       CRGRO046                            
                                                                                
                                                                                
 CROP           : Dry bean         CULTIVAR : Jatu Rong        ECOTYPE :ANDIND  
 STARTING DATE  : APR  2 2011                                                   
 PLANTING DATE  : APR 16 2011        PLANTS/m2 : 26.6     ROW SPACING :  60.cm  
 WEATHER        : PALM8034                                                      
 SOIL           : CCPA000030     TEXTURE : C     -   Silty Clay Loam            
 WATER BALANCE  : NOT SIMULATED ; NO H2O-STRESS                                 
 IRRIGATION     :                                                               
 NITROGEN BAL.  : NOT SIMULATED ; NO N-STRESS                                   
 N-FERTILIZER   :                                                               
 RESIDUE/MANURE :                                                               
 ENVIRONM. OPT. : DAYL=    0.00  SRAD=    0.00  TMAX=    0.00  TMIN=    0.00    
                  RAIN=    0.00  CO2 =    0.00  DEW =    0.00  WIND=    0.00    
 SIMULATION OPT : WATER   :N  NITROGEN:N  N-FIX:N  PHOSPH :N  PESTS  :N         
                  PHOTO   :L  ET      :R  INFIL:S  HYDROL :R  SOM    :G         
                  CO2 391ppm  NSWIT   :1  EVAP :S  SOIL   :2  STEMP  :D         
 MANAGEMENT OPT : PLANTING:A  IRRIG   :A  FERT :D  RESIDUE:N  HARVEST:M         
                  WEATHER :M  TILLAGE :N                                        
                                                                                
*SUMMARY OF SOIL AND GENETIC INPUT PARAMETERS                                   
                                                                                
 Dry bean   CULTIVAR :000005-Jatu Rong          ECOTYPE :ANDIND                 
 CSDVAR :12.17  PPSEN  : 0.05  EMG-FLW:22.00  FLW-FSD: 9.00  FSD-PHM : 11.00    
 WTPSD  :0.600  SDPDVR : 3.50  SDFDUR :15.00  PODDUR :10.00  XFRUIT  :  1.00    
 THRESH : 78.0  SDPRO  :0.235  SDLIP   : 0.030                                  


*SIMULATED CROP AND SOIL STATUS AT MAIN DEVELOPMENT STAGES

 RUN NO.    32     SIM                     

        CROP GROWTH     BIOMASS         LEAF   CROP N     STRESS      STRESS                                           
   DATE  AGE STAGE        kg/ha    LAI   NUM  kg/ha  %   H2O  Nitr Phos1 Phos2  RSTG                                   
 ------  --- ----------   -----  -----  ----  ---  ---  ----  ----  ----  ----  ----                                   
  2 APR    0 Start Sim        0   0.00   0.0    0  0.0  0.00  0.00  0.00  0.00     0
 16 APR    0 Sowing           0   0.00   0.0    0  0.0  0.00  0.00  0.00  0.00     0
 21 APR    5 Emergence       44   0.08   0.2    1  3.4  0.00  0.00  0.00  0.00     0
 21 APR    5 End Juven.      44   0.08   0.2    1  3.4  0.00  0.00  0.00  0.00     0
 24 APR    8 Unifoliate      49   0.09   1.1    2  3.3  0.00  0.64  0.00  0.00     0
 26 APR   10 Flower Ind      57   0.10   1.7    2  3.1  0.00  0.39  0.00  0.00     0
 14 MAY   28 First Flwr     792   2.10   7.1   25  3.1  0.00  0.01  0.00  0.00     1
 17 MAY   31 First Pod     1083   2.57   8.0   34  3.2  0.00  0.00  0.00  0.00     3
 24 MAY   38 First Seed    2086   3.22  10.0   63  3.0  0.00  0.00  0.00  0.00     5
 26 MAY   40 End Msnode    2400   3.25  10.7   72  3.0  0.00  0.00  0.00  0.00     5
 31 MAY   45 End Pod       3136   3.02  10.7   92  2.9  0.00  0.00  0.00  0.00     5
  3 JUN   48 End Leaf      3523   2.77  10.7  101  2.9  0.00  0.00  0.00  0.00     5
  5 JUN   50 Phys. Mat     3780   2.59  10.7  107  2.8  0.00  0.00  0.00  0.00     7
 14 JUN   59 Harv. Mat     3497   0.18  10.7   98  2.8  0.00  0.00  0.00  0.00     8
 14 JUN   59 Harvest       3497   0.18  10.7   98  2.8  0.00  0.00  0.00  0.00     8


*MAIN GROWTH AND DEVELOPMENT VARIABLES

@     VARIABLE                                         SIMULATED     MEASURED
      --------                                         ---------     --------
      Anthesis day (dap)                                      28          -99
      First pod day (dap)                                     31          -99
      First seed day (dap)                                    38          -99
      Physiological maturity day (dap)                        50          -99
      Yield at harvest maturity (kg [dm]/ha)                1851          -99
      Pod/Ear/Panicle weight at maturity (kg [dm]/ha)       2700          -99
      Number at maturity (no/m2)                             553          -99
      Unit wt at maturity (g [dm]/unit)                   0.3349          -99
      Number at maturity (no/unit)                          3.50          -99
      Tops weight at maturity (kg [dm]/ha)                  3497          -99
      By-product produced (stalk) at maturity (kg[dm]/ha    1650          -99
      Leaf area index, maximum                              3.25          -99
      Harvest index at maturity                            0.529          -99
      Threshing % at maturity                              68.54          -99
      Grain N at maturity (kg/ha)                             70          -99
      Tops N at maturity (kg/ha)                              98          -99
      Stem N at maturity (kg/ha)                               9          -99
      Grain N at maturity (%)                               3.81          -99
      Tops weight at anthesis (kg [dm]/ha)                   792          -99
      Tops N at anthesis (kg/ha)                              25          -99
      Leaf number per stem at maturity                     10.65          -99
      Grain oil at maturity (%)                             2.86          -99
      Canopy height (m)                                     0.89          -99
      Harvest maturity day (dap)                              59          -99
      Emergence day (dap)                                      5          -99


*ENVIRONMENTAL AND STRESS FACTORS

 |-----Development Phase------|--------------------------------------Environment--------------------------------------|-----------------Stress-----------------|
                              |---------------Average--------------|-----Cumulative-----|--------Count of days--------|          (0=Min, 1=Max Stress)         |
                         Time  Temp  Temp  Temp Solar Photop                Evapo    Pot TMIN TMIN TMAX TMAX TMAX RAIN|----Water----|---Nitrogen--|-Phosphorus-|
                         Span   Max   Min  Mean   Rad  [day]    CO2   Rain  Trans     ET   <    <    >    >    >    >   Photo         Photo         Photo
                         days    øC    øC    øC MJ/m2     hr    ppm     mm     mm     mm  0øC  2øC 30øC 32øC 34øC  0mm  synth Growth  synth Growth  synth Growth
----------------------------------------------------------------------------------------------------------------------------------------------------------------
 Emergence -First Flower   23  30.0  19.6  24.8  18.8  12.13  391.2   84.2    0.0    0.0    0    0   12    1    0   14  0.000  0.000  0.000  0.124  0.000  0.000
 First Flower-First Seed   10  30.0  18.6  24.3  19.3  12.17  391.4    2.4    0.0    0.0    0    0    5    0    0    4  0.000  0.000  0.000  0.000  0.000  0.000
 First Seed - Phys. Mat.   12  29.3  19.6  24.5  17.5  12.19  391.4   21.7    0.0    0.0    0    0    6    0    0    4  0.000  0.000  0.000  0.000  0.000  0.000
 Emergence  - Phys. Mat.   45  29.8  19.4  24.6  18.5  12.15  391.3  108.3    0.0    0.0    0    0   23    1    0   22  0.000  0.000  0.000  0.063  0.000  0.000


 Planting to Harvest       73  29.8  19.4  24.6  18.6  12.14  391.3  270.6    0.0    0.0    0    0   36    4    0   41  0.000  0.000  0.000  0.039  0.000  0.000
----------------------------------------------------------------------------------------------------------------------------------------------------------------

--------------------------------------------------------------------------------------------------------------

                  Dry bean YIELD :     1851 kg/ha    [Dry weight] 

**************************************************************************************************************
