*GROWTH ASPECTS OUTPUT FILE

*DSSAT Cropping System Model Ver. 4.6.1.000 -release      JUL 11, 2017; 16:24:49
                                                                                
*RUN   1        : SIM                       CRGRO046 5\000005    1              
 MODEL          : CRGRO046 - Dry bean                                           
 EXPERIMENT     : 5\000005 BN PALMIRA_ANALISIS SENSIBILIDAD                     
 DATA PATH      : D:\B\0\00000                                                  
 TREATMENT  1   : SIM                       CRGRO046                            
  
!                                                                                                                                                                                                                                                    Root Dens. (cm/cm3) by soil depth (cm):
!                                                                                                                                                                                                                                                    0-5    5-15   15-25   25-35   35-50   50-65   65-80   80-99  99-122 122-209
@YEAR DOY   DAS   DAP   L#SD   GSTD   LAID   LWAD   SWAD   GWAD   RWAD   VWAD   CWAD   G#AD    GWGD   HIAD   PWAD   P#AD   WSPD   WSGD   NSTD  PST1A  PST2A   KSTD   EWSD    LN%D   SH%D   HIPD   PWDD   PWTD   SLAD   CHTD   CWID   NWAD   RDPD    RL1D    RL2D    RL3D    RL4D    RL5D    RL6D    RL7D    RL8D    RL9D   RL10D    SNW0C   SNW1C
 1980 106    15     0    0.0      0  0.000      0      0      0      0      0      0      0     0.0  0.000      0      0  0.000  0.000  0.000  0.000  0.000  0.000  0.000    0.00   0.00   0.00      0      0    0.0   0.00   0.00    0.0   0.00    0.00    0.00    0.00    0.00    0.00    0.00    0.00    0.00    0.00    0.00        0       0
 1980 107    16     1    0.0      0  0.000      0      0      0      0      0      0      0     0.0  0.000      0      0  0.000  0.000  0.000  0.000  0.000  0.000  0.000    0.00   0.00   0.00      0      0    0.0   0.00   0.00    0.0   0.00    0.00    0.00    0.00    0.00    0.00    0.00    0.00    0.00    0.00    0.00        0       0
 1980 108    17     2    0.0      0  0.000      0      0      0      0      0      0      0     0.0  0.000      0      0  0.000  0.000  0.000  0.000  0.000  0.000  0.000    0.00   0.00   0.00      0      0    0.0   0.00   0.00    0.0   0.00    0.00    0.00    0.00    0.00    0.00    0.00    0.00    0.00    0.00    0.00        0       0
 1980 109    18     3    0.0      0  0.000      0      0      0      0      0      0      0     0.0  0.000      0      0  0.000  0.000  0.000  0.000  0.000  0.000  0.000    0.00   0.00   0.00      0      0    0.0   0.00   0.00    0.0   0.00    0.00    0.00    0.00    0.00    0.00    0.00    0.00    0.00    0.00    0.00        0       0
 1980 110    19     4    0.0      0  0.000      0      0      0      0      0      0      0     0.0  0.000      0      0  0.000  0.000  0.000  0.000  0.000  0.000  0.000    0.00   0.00   0.00      0      0    0.0   0.00   0.00    0.0   0.00    0.00    0.00    0.00    0.00    0.00    0.00    0.00    0.00    0.00    0.00        0       0
 1980 111    20     5    0.2      0  0.079     31     13      0     43     44     44      0     0.0  0.000      0      0  0.000  0.000  0.000  0.000  0.000  0.000  0.000    3.84   0.00   0.00      0      0  256.8   0.04   0.03    0.0   0.27    0.15    0.15    0.15    0.00    0.00    0.00    0.00    0.00    0.00    0.00        0       1
 1980 112    21     6    0.5      0  0.082     31     14      0     50     45     45      0     0.0  0.000      0      0  0.000  0.000  0.646  0.000  0.000  0.000  0.000    3.78   0.00   0.00      0      0  261.8   0.05   0.03    0.0   0.29    0.18    0.18    0.17    0.01    0.00    0.00    0.00    0.00    0.00    0.00        0       2
 1980 113    22     7    0.8      0  0.085     32     15      0     59     47     47      0     0.0  0.000      0      0  0.000  0.000  0.737  0.000  0.000  0.000  0.000    3.72   0.00   0.00      0      0  265.6   0.07   0.04    0.0   0.32    0.21    0.21    0.20    0.02    0.00    0.00    0.00    0.00    0.00    0.00        0       3
 1980 114    23     8    1.1      0  0.088     33     16      0     67     49     49      0     0.0  0.000      0      0  0.000  0.000  0.546  0.000  0.000  0.000  0.000    3.71   0.00   0.00      0      0  271.5   0.08   0.05    0.0   0.34    0.24    0.24    0.21    0.03    0.00    0.00    0.00    0.00    0.00    0.00        0       4
 1980 115    24     9    1.4      0  0.092     33     18      0     74     51     51      0     0.0  0.000      0      0  0.000  0.000  0.519  0.000  0.000  0.000  0.000    3.68   0.00   0.00      0      0  278.2   0.09   0.05    0.0   0.36    0.26    0.26    0.23    0.05    0.00    0.00    0.00    0.00    0.00    0.00        1       6
 1980 116    25    10    1.7      0  0.098     34     22      0     79     56     56      0     0.0  0.000      0      0  0.000  0.000  0.303  0.000  0.000  0.000  0.000    3.66   0.00   0.00      0      0  285.5   0.10   0.06    0.0   0.38    0.28    0.28    0.24    0.06    0.00    0.00    0.00    0.00    0.00    0.00        1       7
 1980 117    26    11    2.0      0  0.114     37     25      0     82     62     62      0     0.0  0.000      0      0  0.000  0.000  0.204  0.000  0.000  0.000  0.000    3.63   0.00   0.00      0      0  308.2   0.11   0.07    0.0   0.40    0.28    0.28    0.25    0.06    0.00    0.00    0.00    0.00    0.00    0.00        2       9
 1980 118    27    12    2.3      0  0.141     44     28      0     82     72     72      0     0.0  0.000      0      0  0.000  0.000  0.000  0.000  0.000  0.000  0.000    3.61   0.00   0.00      0      0  323.5   0.11   0.08    0.0   0.42    0.29    0.29    0.25    0.06    0.00    0.00    0.00    0.00    0.00    0.00        2      11
 1980 119    28    13    2.6      0  0.168     49     34      0     84     83     83      0     0.0  0.000      0      0  0.000  0.000  0.000  0.000  0.000  0.000  0.000    3.56   0.00   0.00      0      0  339.2   0.12   0.08    0.0   0.44    0.29    0.29    0.25    0.07    0.01    0.00    0.00    0.00    0.00    0.00        3      12
 1980 120    29    14    2.9      0  0.206     57     39      0     85     96     96      0     0.0  0.000      0      0  0.000  0.000  0.000  0.000  0.000  0.000  0.000    3.53   0.00   0.00      0      0  358.4   0.13   0.09    0.0   0.46    0.29    0.29    0.25    0.07    0.01    0.00    0.00    0.00    0.00    0.00        3      14
 1980 121    30    15    3.2      0  0.258     70     42      0     85    113    113      0     0.0  0.000      0      0  0.000  0.000  0.000  0.000  0.000  0.000  0.000    3.53   0.00   0.00      0      0  367.5   0.14   0.10    0.0   0.49    0.29    0.29    0.25    0.07    0.01    0.00    0.00    0.00    0.00    0.00        4      16
 1980 122    31    16    3.5      0  0.313     81     49      0     86    131    131      0     0.0  0.000      0      0  0.000  0.000  0.000  0.000  0.000  0.000  0.000    3.52   0.00   0.00      0      0  385.3   0.15   0.12    0.0   0.51    0.29    0.29    0.25    0.07    0.01    0.00    0.00    0.00    0.00    0.00        5      18
 1980 123    32    17    3.8      0  0.365     93     59      0     88    152    152      0     0.0  0.000      0      0  0.000  0.000  0.000  0.000  0.000  0.000  0.000    3.52   0.00   0.00      0      0  390.6   0.16   0.14    0.0   0.53    0.30    0.30    0.25    0.08    0.02    0.00    0.00    0.00    0.00    0.00        5      19
 1980 124    33    18    4.1      0  0.417    105     72      0     90    177    177      0     0.0  0.000      0      0  0.000  0.000  0.000  0.000  0.000  0.000  0.000    3.51   0.00   0.00      0      0  395.5   0.17   0.16    0.0   0.54    0.30    0.30    0.26    0.08    0.02    0.00    0.00    0.00    0.00    0.00        6      21
 1980 125    34    19    4.4      0  0.493    122     83      0     92    206    206      0     0.0  0.000      0      0  0.000  0.000  0.000  0.000  0.000  0.000  0.000    3.52   0.00   0.00      0      0  402.4   0.19   0.18    0.0   0.56    0.31    0.31    0.26    0.09    0.02    0.00    0.00    0.00    0.00    0.00        8      23
 1980 126    35    20    4.7      0  0.604    148     92      0     93    240    240      0     0.0  0.000      0      0  0.000  0.000  0.000  0.000  0.000  0.000  0.000    3.54   0.00   0.00      0      0  407.6   0.20   0.20    0.0   0.58    0.31    0.31    0.26    0.09    0.03    0.00    0.00    0.00    0.00    0.00        9      25
 1980 127    36    21    5.0      0  0.739    178    102      0     94    280    280      0     0.0  0.000      0      0  0.000  0.000  0.000  0.000  0.000  0.000  0.000    3.55   0.00   0.00      0      0  416.4   0.22   0.22    0.0   0.60    0.31    0.31    0.26    0.09    0.03    0.00    0.00    0.00    0.00    0.00       11      27
 1980 128    37    22    5.3      0  0.869    207    120      0     98    327    327      0     0.0  0.000      0      0  0.000  0.000  0.000  0.000  0.000  0.000  0.000    3.56   0.00   0.00      0      0  419.2   0.24   0.25    0.0   0.62    0.32    0.32    0.27    0.10    0.03    0.01    0.00    0.00    0.00    0.00       13      29
 1980 129    38    23    5.6      0  1.018    241    140      0    102    381    381      0     0.0  0.000      0      0  0.000  0.000  0.000  0.000  0.000  0.000  0.000    3.56   0.00   0.00      0      0  422.5   0.26   0.27    0.0   0.64    0.33    0.33    0.27    0.10    0.04    0.01    0.00    0.00    0.00    0.00       15      31
 1980 130    39    24    5.9      0  1.177    279    164      0    107    442    442      0     0.0  0.000      0      0  0.000  0.000  0.000  0.000  0.000  0.000  0.000    3.57   0.00   0.00      0      0  422.3   0.28   0.29    0.0   0.65    0.34    0.34    0.28    0.11    0.04    0.01    0.00    0.00    0.00    0.00       18      33
 1980 131    40    25    6.2      0  1.369    321    191      0    113    512    512      0     0.0  0.000      0      0  0.000  0.000  0.000  0.000  0.000  0.000  0.000    3.57   0.00   0.00      0      0  426.2   0.31   0.31    0.0   0.67    0.35    0.35    0.29    0.12    0.05    0.02    0.00    0.00    0.00    0.00       21      36
 1980 132    41    26    6.5      0  1.561    366    222      0    120    588    588      0     0.0  0.000      0      0  0.000  0.000  0.000  0.000  0.000  0.000  0.000    3.59   0.00   0.00      0      0  426.5   0.34   0.33    0.0   0.69    0.37    0.37    0.30    0.13    0.06    0.02    0.00    0.00    0.00    0.00       29      38
 1980 133    42    27    6.8      0  1.746    407    255      0    128    662    662      0     0.0  0.000      0      0  0.000  0.000  0.000  0.000  0.000  0.000  0.000    3.65   0.00   0.00      0      0  428.9   0.37   0.36    0.0   0.71    0.39    0.39    0.31    0.14    0.06    0.03    0.00    0.00    0.00    0.00       47      41
 1980 134    43    28    7.1      1  1.950    440    288      0    135    728    728      0     0.0  0.000      0      0  0.000  0.000  0.000  0.000  0.000  0.000  0.000    3.70   0.00   0.00      0      0  442.8   0.40   0.38    0.0   0.72    0.40    0.40    0.33    0.15    0.07    0.03    0.00    0.00    0.00    0.00       67      44
 1980 135    44    29    7.4      1  2.128    479    328      0    143    807    807      0     0.0  0.000      0      0  0.000  0.000  0.000  0.000  0.000  0.000  0.000    3.75   0.00   0.00      0      0  443.9   0.43   0.40    0.0   0.74    0.42    0.42    0.34    0.16    0.08    0.04    0.01    0.00    0.00    0.00       90      46
 1980 136    45    30    7.7      1  2.279    517    371      0    153    888    888      0     0.0  0.000      0      0  0.000  0.000  0.000  0.000  0.000  0.000  0.000    3.81   0.00   0.00      0      0  441.1   0.46   0.42    0.0   0.76    0.44    0.44    0.36    0.17    0.09    0.04    0.01    0.00    0.00    0.00      117      49
 1980 137    46    31    7.9      3  2.395    556    422      0    163    979    979      0     0.0  0.000      0      0  0.000  0.000  0.000  0.000  0.000  0.000  0.000    3.88   0.00   0.00      0      0  430.3   0.49   0.44    0.0   0.77    0.47    0.47    0.37    0.18    0.10    0.05    0.01    0.00    0.00    0.00      149      53
 1980 138    47    32    8.2      3  2.533    604    480      0    173   1084   1087      0     0.0  0.000      3      4  0.000  0.000  0.000  0.000  0.000  0.000  0.000    3.89   0.00   0.00      0      3  419.2   0.52   0.46    0.0   0.79    0.49    0.49    0.39    0.19    0.11    0.05    0.02    0.00    0.00    0.00      170      56
 1980 139    48    33    8.5      3  2.658    651    539      0    183   1189   1204      0     0.0  0.000     15     14  0.000  0.000  0.000  0.000  0.000  0.000  0.000    3.89   0.00   0.01      0     15  408.6   0.55   0.48    0.0   0.81    0.51    0.51    0.41    0.21    0.12    0.06    0.02    0.00    0.00    0.00      189      60
 1980 140    49    34    8.8      3  2.763    693    597      0    192   1291   1327      0     0.0  0.000     36     25  0.000  0.000  0.000  0.000  0.000  0.000  0.000    3.89   0.00   0.03      0     36  398.5   0.58   0.50    0.0   0.82    0.53    0.53    0.42    0.22    0.13    0.06    0.03    0.00    0.00    0.00      208      64
 1980 141    50    35    9.1      3  2.843    735    658      0    201   1393   1459      0     0.0  0.000     66     37  0.000  0.000  0.000  0.000  0.000  0.000  0.000    3.88   0.00   0.05      0     66  386.7   0.61   0.52    0.0   0.84    0.55    0.55    0.43    0.23    0.13    0.07    0.03    0.00    0.00    0.00      225      68
 1980 142    51    36    9.5      3  2.905    767    711      0    207   1478   1585      0     0.0  0.000    107     49  0.000  0.000  0.000  0.000  0.000  0.000  0.000    3.86   0.00   0.07      0    107  378.7   0.64   0.54    0.0   0.86    0.57    0.57    0.44    0.24    0.14    0.07    0.03    0.00    0.00    0.00      243      72
 1980 143    52    37    9.8      3  2.956    799    766      0    213   1565   1722      0     0.0  0.000    157     61  0.000  0.000  0.000  0.000  0.000  0.000  0.000    3.84   0.00   0.09      0    157  369.9   0.68   0.55    0.0   0.87    0.58    0.58    0.45    0.24    0.15    0.07    0.04    0.00    0.00    0.00      257      77
 1980 144    53    38   10.1      5  2.987    826    817      0    219   1644   1861     12     0.0  0.000    217     74  0.000  0.000  0.000  0.000  0.000  0.000  0.000    3.82   0.00   0.12      0    217  361.5   0.71   0.57    0.0   0.89    0.59    0.59    0.46    0.25    0.15    0.08    0.04    0.00    0.00    0.00      272      81
 1980 145    54    39   10.4      5  3.000    846    861      5    222   1707   1997     47    10.0  0.002    290     87  0.000  0.000  0.000  0.000  0.000  0.000  0.000    3.80   1.61   0.15      0    290  354.4   0.75   0.58    0.0   0.91    0.60    0.60    0.47    0.25    0.15    0.08    0.04    0.00    0.00    0.00      288      86
 1980 146    55    40   10.7      5  3.000    862    898     22    224   1760   2141     83    26.6  0.010    381    100  0.000  0.000  0.000  0.000  0.000  0.000  0.000    3.78   5.82   0.18      0    381  348.1   0.79   0.59    0.0   0.92    0.60    0.60    0.47    0.26    0.16    0.08    0.04    0.01    0.00    0.00      304      91
 1980 147    56    41   10.7      5  2.980    866    920     55    224   1786   2277    122    44.7  0.024    492    112  0.000  0.000  0.000  0.000  0.000  0.000  0.000    3.76  11.11   0.22      0    492  344.2   0.82   0.60    0.0   0.94    0.60    0.60    0.47    0.26    0.16    0.08    0.04    0.01    0.00    0.00      319      95
 1980 148    57    42   10.7      5  2.944    861    931    102    222   1793   2411    161    63.1  0.042    618    125  0.000  0.000  0.000  0.000  0.000  0.000  0.000    3.74  16.48   0.26      0    618  341.8   0.86   0.60    0.0   0.96    0.59    0.59    0.46    0.25    0.16    0.08    0.04    0.01    0.00    0.00      336     100
 1980 149    58    43   10.7      5  2.890    849    932    163    219   1781   2539    203    80.6  0.064    758    138  0.000  0.000  0.000  0.000  0.000  0.000  0.000    3.69  21.57   0.30      0    758  340.6   0.90   0.60    0.0   0.97    0.58    0.58    0.45    0.25    0.15    0.08    0.04    0.01    0.00    0.00      355     105
 1980 150    59    44   10.7      5  2.827    829    924    241    214   1753   2667    245    98.3  0.090    914    150  0.000  0.000  0.000  0.000  0.000  0.000  0.000    3.63  26.40   0.34      0    914  340.9   0.90   0.60    0.0   0.99    0.57    0.57    0.45    0.25    0.15    0.08    0.04    0.01    0.00    0.00      374     110
 1980 151    60    45   10.7      5  2.758    806    909    338    209   1716   2784    290   116.6  0.121   1069    163  0.000  0.000  0.000  0.000  0.000  0.000  0.000    3.57  31.61   0.38      0   1069  342.1   0.90   0.60    0.0   0.99    0.56    0.56    0.44    0.24    0.15    0.08    0.04    0.01    0.00    0.00      394     115
 1980 152    61    46   10.7      5  2.687    783    895    449    204   1678   2912    335   134.1  0.154   1234    175  0.000  0.000  0.000  0.000  0.000  0.000  0.000    3.50  36.37   0.42      0   1234  343.3   0.90   0.60    0.0   0.99    0.55    0.55    0.43    0.24    0.14    0.08    0.04    0.01    0.00    0.00      415     119
 1980 153    62    47   10.7      5  2.615    759    881    581    200   1640   3031    335   173.6  0.192   1391    185  0.000  0.000  0.000  0.000  0.000  0.000  0.000    3.43  41.77   0.46      0   1391  344.5   0.90   0.60    0.0   0.99    0.54    0.54    0.42    0.23    0.14    0.07    0.04    0.01    0.00    0.00      432     123
 1980 154    63    48   10.7      5  2.552    738    868    710    196   1606   3140    379   187.2  0.226   1534    192  0.000  0.000  0.000  0.000  0.000  0.000  0.000    3.36  46.28   0.49      0   1534  345.6   0.90   0.60    0.0   0.99    0.53    0.53    0.41    0.23    0.14    0.07    0.04    0.01    0.00    0.00      450     126
 1980 155    64    49   10.7      5  2.475    713    853    855    192   1567   3266    425   201.2  0.262   1700    196  0.000  0.000  0.000  0.000  0.000  0.000  0.000    3.27  50.30   0.52      0   1700  346.9   0.90   0.60    0.0   0.99    0.52    0.52    0.40    0.22    0.14    0.07    0.04    0.01    0.00    0.00      472     130
 1980 156    65    50   10.7      7  2.393    687    838   1018    187   1525   3384    465   218.9  0.301   1859    197  0.000  0.000  0.000  0.000  0.000  0.000  0.000    3.17  54.78   0.55      0   1859  348.3   0.90   0.60    0.0   0.99    0.51    0.51    0.39    0.22    0.13    0.07    0.04    0.01    0.00    0.00      501     134
 1980 157    66    51   10.7      7  1.767    505    778   1195    183   1284   3291    487   245.6  0.363   2008    190  0.000  0.000  0.000  0.000  0.000  0.000  0.000    2.98  59.54   0.61      0   2008  349.7   0.90   0.60    0.0   0.99    0.50    0.50    0.39    0.21    0.13    0.07    0.04    0.01    0.00    0.00      743     138
 1980 158    67    52   10.7      7  1.306    372    733   1335    178   1105   3244    487   274.2  0.412   2139    177  0.000  0.000  0.000  0.000  0.000  0.000  0.000    2.79  62.42   0.66      0   2139  351.0   0.90   0.60    0.0   0.99    0.48    0.48    0.38    0.21    0.13    0.07    0.04    0.01    0.00    0.00      907     142
 1980 159    68    53   10.7      7  0.966    274    700   1446    174    974   3216    487   297.0  0.450   2242    164  0.000  0.000  0.000  0.000  0.000  0.000  0.000    2.62  64.50   0.70      0   2242  352.1   0.90   0.60    0.0   0.99    0.47    0.47    0.37    0.20    0.13    0.07    0.04    0.01    0.00    0.00     1028     146
 1980 160    69    54   10.7      7  0.716    203    674   1531    170    877   3196    487   314.4  0.479   2320    154  0.000  0.000  0.000  0.000  0.000  0.000  0.000    2.46  66.00   0.73      0   2320  353.2   0.90   0.60    0.0   0.99    0.46    0.46    0.36    0.20    0.12    0.06    0.04    0.01    0.00    0.00     1117     150
 1980 161    70    55   10.7      7  0.531    150    653   1594    166    803   3179    487   327.4  0.501   2376    146  0.000  0.000  0.000  0.000  0.000  0.000  0.000    2.33  67.09   0.75      0   2376  354.6   0.90   0.60    0.0   0.99    0.45    0.45    0.35    0.20    0.12    0.06    0.03    0.01    0.00    0.00     1183     154
 1980 162    71    56   10.7      7  0.395    111    637   1639    163    748   3163    487   336.6  0.518   2415    139  0.000  0.000  0.000  0.000  0.000  0.000  0.000    2.21  67.87   0.76      0   2415  355.9   0.90   0.60    0.0   0.99    0.44    0.44    0.35    0.19    0.12    0.06    0.03    0.01    0.00    0.00     1232     157
 1980 163    72    57   10.7      7  0.293     82    624   1672    159    706   3149    487   343.5  0.531   2442    139  0.000  0.000  0.000  0.000  0.000  0.000  0.000    2.10  68.48   0.78      0   2442  357.3   0.90   0.60    0.0   0.99    0.43    0.43    0.34    0.19    0.11    0.06    0.03    0.01    0.00    0.00     1268     161
 1980 164    73    58   10.7      7  0.219     61    614   1694    156    675   3135    487   348.0  0.540   2460    139  0.000  0.000  0.000  0.000  0.000  0.000  0.000    2.02  68.88   0.78      0   2460  358.5   0.90   0.60    0.0   0.99    0.43    0.43    0.33    0.18    0.11    0.06    0.03    0.01    0.00    0.00     1295     164
 1980 165    74    59   10.7      8  0.163     45    607   1707    153    652   3122    487   350.7  0.547   2470    139  0.000  0.000  0.000  0.000  0.000  0.000  0.000    1.98  69.14   0.79      0   2470  359.7   0.90   0.60    0.0   1.00    0.42    0.42    0.33    0.18    0.11    0.06    0.03    0.01    0.00    0.00     1314     167

*DSSAT Cropping System Model Ver. 4.6.1.000 -release      JUL 11, 2017; 16:24:49
                                                                                
*RUN   2        : SIM                       CRGRO046 5\000005    1              
 MODEL          : CRGRO046 - Dry bean                                           
 EXPERIMENT     : 5\000005 BN PALMIRA_ANALISIS SENSIBILIDAD                     
 DATA PATH      : D:\B\0\00000                                                  
 TREATMENT  1   : SIM                       CRGRO046                            
  
!                                                                                                                                                                                                                                                    Root Dens. (cm/cm3) by soil depth (cm):
!                                                                                                                                                                                                                                                    0-5    5-15   15-25   25-35   35-50   50-65   65-80   80-99  99-122 122-209
@YEAR DOY   DAS   DAP   L#SD   GSTD   LAID   LWAD   SWAD   GWAD   RWAD   VWAD   CWAD   G#AD    GWGD   HIAD   PWAD   P#AD   WSPD   WSGD   NSTD  PST1A  PST2A   KSTD   EWSD    LN%D   SH%D   HIPD   PWDD   PWTD   SLAD   CHTD   CWID   NWAD   RDPD    RL1D    RL2D    RL3D    RL4D    RL5D    RL6D    RL7D    RL8D    RL9D   RL10D    SNW0C   SNW1C
 1981 106    15     0    0.0      0  0.000      0      0      0      0      0      0      0     0.0  0.000      0      0  0.000  0.000  0.000  0.000  0.000  0.000  0.000    0.00   0.00   0.00      0      0    0.0   0.00   0.00    0.0   0.00    0.00    0.00    0.00    0.00    0.00    0.00    0.00    0.00    0.00    0.00        0       0
 1981 107    16     1    0.0      0  0.000      0      0      0      0      0      0      0     0.0  0.000      0      0  0.000  0.000  0.000  0.000  0.000  0.000  0.000    0.00   0.00   0.00      0      0    0.0   0.00   0.00    0.0   0.00    0.00    0.00    0.00    0.00    0.00    0.00    0.00    0.00    0.00    0.00        0       0
 1981 108    17     2    0.0      0  0.000      0      0      0      0      0      0      0     0.0  0.000      0      0  0.000  0.000  0.000  0.000  0.000  0.000  0.000    0.00   0.00   0.00      0      0    0.0   0.00   0.00    0.0   0.00    0.00    0.00    0.00    0.00    0.00    0.00    0.00    0.00    0.00    0.00        0       0
 1981 109    18     3    0.0      0  0.000      0      0      0      0      0      0      0     0.0  0.000      0      0  0.000  0.000  0.000  0.000  0.000  0.000  0.000    0.00   0.00   0.00      0      0    0.0   0.00   0.00    0.0   0.00    0.00    0.00    0.00    0.00    0.00    0.00    0.00    0.00    0.00    0.00        0       0
 1981 110    19     4    0.0      0  0.000      0      0      0      0      0      0      0     0.0  0.000      0      0  0.000  0.000  0.000  0.000  0.000  0.000  0.000    0.00   0.00   0.00      0      0    0.0   0.00   0.00    0.0   0.00    0.00    0.00    0.00    0.00    0.00    0.00    0.00    0.00    0.00    0.00        0       0
 1981 111    20     5    0.2      0  0.079     31     13      0     43     44     44      0     0.0  0.000      0      0  0.000  0.000  0.000  0.000  0.000  0.000  0.000    3.84   0.00   0.00      0      0  256.6   0.04   0.03    0.0   0.27    0.15    0.15    0.15    0.00    0.00    0.00    0.00    0.00    0.00    0.00        0       1
 1981 112    21     6    0.5      0  0.082     31     14      0     51     45     45      0     0.0  0.000      0      0  0.000  0.000  0.653  0.000  0.000  0.000  0.000    3.78   0.00   0.00      0      0  261.6   0.05   0.03    0.0   0.29    0.18    0.18    0.18    0.01    0.00    0.00    0.00    0.00    0.00    0.00        0       2
 1981 113    22     7    0.8      0  0.084     32     15      0     59     46     46      0     0.0  0.000      0      0  0.000  0.000  0.742  0.000  0.000  0.000  0.000    3.73   0.00   0.00      0      0  265.1   0.06   0.04    0.0   0.31    0.21    0.21    0.20    0.02    0.00    0.00    0.00    0.00    0.00    0.00        0       3
 1981 114    23     8    1.1      0  0.087     32     16      0     67     48     48      0     0.0  0.000      0      0  0.000  0.000  0.576  0.000  0.000  0.000  0.000    3.71   0.00   0.00      0      0  270.8   0.07   0.04    0.0   0.33    0.24    0.24    0.22    0.03    0.00    0.00    0.00    0.00    0.00    0.00        0       4
 1981 115    24     9    1.3      0  0.091     33     18      0     74     51     51      0     0.0  0.000      0      0  0.000  0.000  0.498  0.000  0.000  0.000  0.000    3.68   0.00   0.00      0      0  276.8   0.08   0.05    0.0   0.36    0.26    0.26    0.23    0.04    0.00    0.00    0.00    0.00    0.00    0.00        1       6
 1981 116    25    10    1.7      0  0.096     34     21      0     80     54     54      0     0.0  0.000      0      0  0.000  0.000  0.437  0.000  0.000  0.000  0.000    3.66   0.00   0.00      0      0  285.0   0.09   0.06    0.0   0.38    0.28    0.28    0.25    0.06    0.00    0.00    0.00    0.00    0.00    0.00        1       7
 1981 117    26    11    1.9      0  0.107     35     23      0     84     59     59      0     0.0  0.000      0      0  0.000  0.000  0.290  0.000  0.000  0.000  0.000    3.64   0.00   0.00      0      0  303.6   0.10   0.07    0.0   0.40    0.29    0.29    0.25    0.06    0.00    0.00    0.00    0.00    0.00    0.00        2       9
 1981 118    27    12    2.2      0  0.129     41     26      0     84     67     67      0     0.0  0.000      0      0  0.000  0.000  0.000  0.000  0.000  0.000  0.000    3.64   0.00   0.00      0      0  314.7   0.11   0.07    0.0   0.42    0.29    0.29    0.25    0.06    0.00    0.00    0.00    0.00    0.00    0.00        2      10
 1981 119    28    13    2.5      0  0.157     47     31      0     85     78     78      0     0.0  0.000      0      0  0.000  0.000  0.000  0.000  0.000  0.000  0.000    3.58   0.00   0.00      0      0  332.8   0.12   0.08    0.0   0.44    0.30    0.30    0.25    0.07    0.01    0.00    0.00    0.00    0.00    0.00        2      12
 1981 120    29    14    2.8      0  0.183     53     37      0     87     90     90      0     0.0  0.000      0      0  0.000  0.000  0.000  0.000  0.000  0.000  0.000    3.55   0.00   0.00      0      0  347.2   0.12   0.09    0.0   0.46    0.30    0.30    0.26    0.07    0.01    0.00    0.00    0.00    0.00    0.00        3      14
 1981 121    30    15    3.1      0  0.236     64     40      0     87    104    104      0     0.0  0.000      0      0  0.000  0.000  0.000  0.000  0.000  0.000  0.000    3.54   0.00   0.00      0      0  367.4   0.13   0.10    0.0   0.48    0.30    0.30    0.26    0.07    0.01    0.00    0.00    0.00    0.00    0.00        4      16
 1981 122    31    16    3.4      0  0.290     76     46      0     87    122    122      0     0.0  0.000      0      0  0.000  0.000  0.000  0.000  0.000  0.000  0.000    3.53   0.00   0.00      0      0  379.3   0.14   0.11    0.0   0.50    0.30    0.30    0.26    0.07    0.01    0.00    0.00    0.00    0.00    0.00        4      17
 1981 123    32    17    3.7      0  0.343     88     54      0     89    142    142      0     0.0  0.000      0      0  0.000  0.000  0.000  0.000  0.000  0.000  0.000    3.52   0.00   0.00      0      0  388.7   0.15   0.13    0.0   0.52    0.30    0.30    0.26    0.08    0.02    0.00    0.00    0.00    0.00    0.00        5      19
 1981 124    33    18    3.9      0  0.394     99     66      0     91    165    165      0     0.0  0.000      0      0  0.000  0.000  0.000  0.000  0.000  0.000  0.000    3.51   0.00   0.00      0      0  397.7   0.17   0.15    0.0   0.54    0.31    0.31    0.26    0.08    0.02    0.00    0.00    0.00    0.00    0.00        6      21
 1981 125    34    19    4.2      0  0.445    110     80      0     94    190    190      0     0.0  0.000      0      0  0.000  0.000  0.000  0.000  0.000  0.000  0.000    3.51   0.00   0.00      0      0  403.5   0.18   0.17    0.0   0.56    0.31    0.31    0.26    0.09    0.02    0.00    0.00    0.00    0.00    0.00        7      23
 1981 126    35    20    4.5      0  0.548    131     87      0     94    218    218      0     0.0  0.000      0      0  0.000  0.000  0.000  0.000  0.000  0.000  0.000    3.53   0.00   0.00      0      0  417.2   0.19   0.19    0.0   0.57    0.31    0.31    0.26    0.09    0.03    0.00    0.00    0.00    0.00    0.00        8      25
 1981 127    36    21    4.8      0  0.670    159     96      0     95    254    254      0     0.0  0.000      0      0  0.000  0.000  0.000  0.000  0.000  0.000  0.000    3.55   0.00   0.00      0      0  421.8   0.21   0.21    0.0   0.59    0.32    0.32    0.26    0.09    0.03    0.00    0.00    0.00    0.00    0.00       10      27
 1981 128    37    22    5.0      0  0.767    181    108      0     98    289    289      0     0.0  0.000      0      0  0.000  0.000  0.000  0.000  0.000  0.000  0.000    3.55   0.00   0.00      0      0  423.7   0.22   0.23    0.0   0.61    0.32    0.32    0.27    0.09    0.03    0.00    0.00    0.00    0.00    0.00       11      28
 1981 129    38    23    5.3      0  0.893    210    126      0    101    336    336      0     0.0  0.000      0      0  0.000  0.000  0.000  0.000  0.000  0.000  0.000    3.56   0.00   0.00      0      0  424.4   0.24   0.24    0.0   0.62    0.33    0.33    0.27    0.10    0.04    0.01    0.00    0.00    0.00    0.00       13      30
 1981 130    39    24    5.6      0  1.045    244    146      0    105    389    389      0     0.0  0.000      0      0  0.000  0.000  0.000  0.000  0.000  0.000  0.000    3.56   0.00   0.00      0      0  429.2   0.26   0.26    0.0   0.64    0.34    0.34    0.28    0.10    0.04    0.01    0.00    0.00    0.00    0.00       16      32
 1981 131    40    25    5.9      0  1.215    281    169      0    110    450    450      0     0.0  0.000      0      0  0.000  0.000  0.000  0.000  0.000  0.000  0.000    3.57   0.00   0.00      0      0  432.4   0.28   0.29    0.0   0.66    0.35    0.35    0.29    0.11    0.05    0.01    0.00    0.00    0.00    0.00       18      35
 1981 132    41    26    6.2      0  1.407    324    196      0    116    520    520      0     0.0  0.000      0      0  0.000  0.000  0.000  0.000  0.000  0.000  0.000    3.57   0.00   0.00      0      0  434.7   0.31   0.31    0.0   0.67    0.36    0.36    0.30    0.12    0.05    0.02    0.00    0.00    0.00    0.00       22      37
 1981 133    42    27    6.5      0  1.611    368    227      0    123    595    595      0     0.0  0.000      0      0  0.000  0.000  0.000  0.000  0.000  0.000  0.000    3.59   0.00   0.00      0      0  437.2   0.33   0.33    0.0   0.69    0.38    0.38    0.31    0.13    0.06    0.02    0.00    0.00    0.00    0.00       29      39
 1981 134    43    28    6.8      0  1.802    409    260      0    131    669    669      0     0.0  0.000      0      0  0.000  0.000  0.000  0.000  0.000  0.000  0.000    3.64   0.00   0.00      0      0  440.4   0.36   0.35    0.0   0.71    0.40    0.40    0.32    0.14    0.07    0.03    0.00    0.00    0.00    0.00       46      42
 1981 135    44    29    7.1      1  1.976    451    299      0    139    749    749      0     0.0  0.000      0      0  0.000  0.000  0.000  0.000  0.000  0.000  0.000    3.70   0.00   0.00      0      0  438.4   0.39   0.37    0.0   0.72    0.42    0.42    0.34    0.15    0.08    0.03    0.00    0.00    0.00    0.00       66      45
 1981 136    45    30    7.3      1  2.146    486    337      0    148    823    823      0     0.0  0.000      0      0  0.000  0.000  0.000  0.000  0.000  0.000  0.000    3.76   0.00   0.00      0      0  441.3   0.42   0.39    0.0   0.74    0.44    0.44    0.35    0.16    0.08    0.04    0.01    0.00    0.00    0.00       90      48
 1981 137    46    31    7.6      1  2.291    526    384      0    157    910    910      0     0.0  0.000      0      0  0.000  0.000  0.000  0.000  0.000  0.000  0.000    3.81   0.00   0.00      0      0  435.5   0.45   0.41    0.0   0.76    0.46    0.46    0.37    0.17    0.09    0.04    0.01    0.00    0.00    0.00      117      51
 1981 138    47    32    7.9      3  2.407    565    435      0    167   1000   1000      0     0.0  0.000      0      0  0.000  0.000  0.000  0.000  0.000  0.000  0.000    3.88   0.00   0.00      0      0  426.2   0.48   0.44    0.0   0.77    0.48    0.48    0.38    0.19    0.10    0.05    0.01    0.00    0.00    0.00      150      54
 1981 139    48    33    8.2      3  2.535    611    493      0    178   1104   1108      0     0.0  0.000      3      4  0.000  0.000  0.000  0.000  0.000  0.000  0.000    3.90   0.00   0.00      0      3  414.6   0.51   0.45    0.0   0.79    0.50    0.50    0.40    0.20    0.11    0.05    0.02    0.00    0.00    0.00      172      57
 1981 140    49    34    8.5      3  2.655    658    553      0    187   1211   1226      0     0.0  0.000     15     15  0.000  0.000  0.000  0.000  0.000  0.000  0.000    3.90   0.00   0.01      0     15  403.3   0.54   0.47    0.0   0.81    0.53    0.53    0.41    0.21    0.12    0.06    0.02    0.00    0.00    0.00      192      61
 1981 141    50    35    8.8      3  2.758    701    613      0    196   1313   1350      0     0.0  0.000     36     25  0.000  0.000  0.000  0.000  0.000  0.000  0.000    3.89   0.00   0.03      0     36  393.5   0.57   0.49    0.0   0.82    0.54    0.54    0.43    0.22    0.13    0.06    0.03    0.00    0.00    0.00      210      65
 1981 142    51    36    9.1      3  2.840    741    673      0    205   1414   1480      0     0.0  0.000     66     37  0.000  0.000  0.000  0.000  0.000  0.000  0.000    3.88   0.00   0.04      0     66  383.1   0.60   0.51    0.0   0.84    0.56    0.56    0.44    0.23    0.14    0.07    0.03    0.00    0.00    0.00      227      70
 1981 143    52    37    9.4      3  2.898    773    726      0    211   1499   1607      0     0.0  0.000    108     49  0.000  0.000  0.000  0.000  0.000  0.000  0.000    3.86   0.00   0.07      0    108  374.8   0.64   0.53    0.0   0.86    0.58    0.58    0.45    0.24    0.14    0.07    0.03    0.00    0.00    0.00      244      74
 1981 144    53    38    9.7      3  2.942    803    778      0    217   1582   1741      0     0.0  0.000    160     62  0.000  0.000  0.000  0.000  0.000  0.000  0.000    3.85   0.00   0.09      0    160  366.3   0.67   0.55    0.0   0.87    0.59    0.59    0.46    0.25    0.15    0.07    0.04    0.00    0.00    0.00      258      78
 1981 145    54    39   10.0      5  2.969    828    826      0    222   1654   1877      0     0.0  0.000    223     75  0.000  0.000  0.000  0.000  0.000  0.000  0.000    3.82   0.00   0.12      0    223  358.6   0.70   0.56    0.0   0.89    0.60    0.60    0.47    0.25    0.15    0.08    0.04    0.00    0.00    0.00      271      83
 1981 146    55    40   10.3      5  2.983    848    869      0    225   1717   2012     13     0.0  0.000    295     88  0.000  0.000  0.000  0.000  0.000  0.000  0.000    3.80   0.00   0.15      0    295  351.8   0.74   0.57    0.0   0.90    0.61    0.61    0.47    0.26    0.16    0.08    0.04    0.00    0.00    0.00      284      87
 1981 147    56    41   10.6      5  2.984    863    905      5    227   1768   2148     49    10.7  0.002    379    101  0.000  0.000  0.000  0.000  0.000  0.000  0.000    3.77   1.38   0.18      0    379  345.7   0.77   0.59    0.0   0.92    0.61    0.61    0.47    0.26    0.16    0.08    0.04    0.01    0.00    0.00      297      92
 1981 148    57    42   10.6      5  2.969    873    937     24    229   1809   2288     85    28.2  0.011    478    114  0.000  0.000  0.000  0.000  0.000  0.000  0.000    3.75   5.05   0.21      0    478  340.3   0.80   0.60    0.0   0.94    0.61    0.61    0.48    0.26    0.16    0.08    0.04    0.01    0.00    0.00      312      96
 1981 149    58    43   10.6      5  2.937    872    955     58    228   1826   2421    125    46.2  0.024    594    128  0.000  0.000  0.000  0.000  0.000  0.000  0.000    3.72   9.68   0.25      0    594  337.0   0.84   0.60    0.0   0.95    0.61    0.61    0.47    0.26    0.16    0.08    0.05    0.01    0.00    0.00      327     101
 1981 150    59    44   10.6      5  2.888    863    962    106    225   1825   2551    166    64.0  0.042    726    141  0.000  0.000  0.000  0.000  0.000  0.000  0.000    3.67  14.60   0.28      0    726  334.8   0.87   0.60    0.0   0.97    0.60    0.60    0.47    0.26    0.16    0.08    0.05    0.01    0.00    0.00      343     106
 1981 151    60    45   10.6      5  2.830    846    958    171    221   1804   2679    209    81.7  0.064    875    155  0.000  0.000  0.000  0.000  0.000  0.000  0.000    3.61  19.50   0.33      0    875  334.3   0.87   0.60    0.0   0.98    0.59    0.59    0.46    0.25    0.16    0.08    0.04    0.01    0.00    0.00      360     111
 1981 152    61    46   10.6      5  2.762    823    943    253    216   1766   2796    253    99.9  0.090   1030    168  0.000  0.000  0.000  0.000  0.000  0.000  0.000    3.55  24.57   0.37      0   1030  335.5   0.87   0.60    0.0   0.98    0.58    0.58    0.45    0.25    0.15    0.08    0.04    0.01    0.00    0.00      379     115
 1981 153    62    47   10.6      5  2.691    799    928    352    211   1727   2918    299   117.8  0.121   1191    181  0.000  0.000  0.000  0.000  0.000  0.000  0.000    3.48  29.56   0.41      0   1191  336.7   0.87   0.60    0.0   0.98    0.57    0.57    0.44    0.24    0.15    0.08    0.04    0.01    0.00    0.00      399     120
 1981 154    63    48   10.6      5  2.617    774    913    466    206   1687   3045    345   135.1  0.153   1358    191  0.000  0.000  0.000  0.000  0.000  0.000  0.000    3.41  34.31   0.45      0   1358  337.9   0.87   0.60    0.0   1.00    0.55    0.55    0.43    0.24    0.15    0.08    0.04    0.01    0.00    0.00      419     124
 1981 155    64    49   10.6      5  2.539    749    897    598    201   1645   3170    391   152.9  0.189   1525    198  0.000  0.000  0.000  0.000  0.000  0.000  0.000    3.32  39.21   0.48      0   1525  339.2   0.87   0.60    0.0   1.00    0.54    0.54    0.42    0.23    0.14    0.07    0.04    0.01    0.00    0.00      441     129
 1981 156    65    50   10.6      5  2.456    721    881    748    196   1602   3293    438   170.6  0.227   1691    203  0.000  0.000  0.000  0.000  0.000  0.000  0.000    3.22  44.22   0.51      0   1691  340.5   0.87   0.60    0.0   1.02    0.53    0.53    0.41    0.23    0.14    0.07    0.04    0.01    0.00    0.00      465     133
 1981 157    66    51   10.6      7  2.373    694    865    915    192   1559   3414    484   189.1  0.268   1855    205  0.000  0.000  0.000  0.000  0.000  0.000  0.000    3.12  49.35   0.54      0   1855  341.9   0.87   0.60    0.0   1.03    0.52    0.52    0.40    0.22    0.14    0.07    0.04    0.01    0.00    0.00      488     138
 1981 158    67    52   10.6      7  1.752    510    804   1074    187   1314   3294    531   202.2  0.326   1980    191  0.000  0.000  0.000  0.000  0.000  0.000  0.000    2.93  54.25   0.60      0   1980  343.4   0.87   0.60    0.0   1.03    0.51    0.51    0.40    0.22    0.13    0.07    0.04    0.01    0.00    0.00      737     141
 1981 159    68    53   10.6      7  1.296    376    758   1207    183   1134   3238    531   227.2  0.373   2103    191  0.000  0.000  0.000  0.000  0.000  0.000  0.000    2.76  57.38   0.65      0   2103  344.8   0.87   0.60    0.0   1.03    0.50    0.50    0.39    0.21    0.13    0.07    0.04    0.01    0.00    0.00      903     145
 1981 160    69    54   10.6      7  0.961    278    724   1312    180   1001   3202    531   247.0  0.410   2201    178  0.000  0.000  0.000  0.000  0.000  0.000  0.000    2.61  59.63   0.69      0   2201  346.1   0.87   0.60    0.0   1.03    0.49    0.49    0.38    0.21    0.13    0.07    0.04    0.01    0.00    0.00     1025     149
 1981 161    70    55   10.6      7  0.712    205    697   1397    176    902   3179    531   263.0  0.439   2277    168  0.000  0.000  0.000  0.000  0.000  0.000  0.000    2.47  61.34   0.72      0   2277  347.5   0.87   0.60    0.0   1.03    0.48    0.48    0.37    0.21    0.13    0.07    0.04    0.01    0.00    0.00     1115     152
 1981 162    71    56   10.6      7  0.529    152    676   1461    172    827   3161    531   275.1  0.462   2334    160  0.000  0.000  0.000  0.000  0.000  0.000  0.000    2.33  62.61   0.74      0   2334  348.9   0.87   0.60    0.0   1.03    0.47    0.47    0.36    0.20    0.12    0.06    0.04    0.01    0.00    0.00     1182     156
 1981 163    72    57   10.6      7  0.393    112    659   1506    168    771   3143    531   283.5  0.479   2371    155  0.000  0.000  0.000  0.000  0.000  0.000  0.000    2.21  63.50   0.75      0   2371  350.2   0.87   0.60    0.0   1.03    0.46    0.46    0.36    0.20    0.12    0.06    0.03    0.01    0.00    0.00     1231     160
 1981 164    73    58   10.6      7  0.292     83    646   1541    164    729   3129    531   290.1  0.492   2400    152  0.000  0.000  0.000  0.000  0.000  0.000  0.000    2.10  64.20   0.77      0   2400  351.6   0.87   0.60    0.0   1.03    0.45    0.45    0.35    0.19    0.12    0.06    0.03    0.01    0.00    0.00     1268     163
 1981 165    74    59   10.6      7  0.218     62    636   1562    160    698   3114    531   294.1  0.502   2416    152  0.000  0.000  0.000  0.000  0.000  0.000  0.000    2.03  64.65   0.78      0   2416  352.9   0.87   0.60    0.0   1.03    0.44    0.44    0.34    0.19    0.12    0.06    0.03    0.01    0.00    0.00     1295     167
 1981 166    75    60   10.6      8  0.163     46    628   1574    157    674   3099    531   296.4  0.508   2425    152  0.000  0.000  0.000  0.000  0.000  0.000  0.000    1.99  64.92   0.78      0   2425  354.1   0.87   0.60    0.0   1.05    0.43    0.43    0.33    0.18    0.11    0.06    0.03    0.01    0.00    0.00     1315     170

*DSSAT Cropping System Model Ver. 4.6.1.000 -release      JUL 11, 2017; 16:24:49
                                                                                
*RUN   3        : SIM                       CRGRO046 5\000005    1              
 MODEL          : CRGRO046 - Dry bean                                           
 EXPERIMENT     : 5\000005 BN PALMIRA_ANALISIS SENSIBILIDAD                     
 DATA PATH      : D:\B\0\00000                                                  
 TREATMENT  1   : SIM                       CRGRO046                            
  
!                                                                                                                                                                                                                                                    Root Dens. (cm/cm3) by soil depth (cm):
!                                                                                                                                                                                                                                                    0-5    5-15   15-25   25-35   35-50   50-65   65-80   80-99  99-122 122-209
@YEAR DOY   DAS   DAP   L#SD   GSTD   LAID   LWAD   SWAD   GWAD   RWAD   VWAD   CWAD   G#AD    GWGD   HIAD   PWAD   P#AD   WSPD   WSGD   NSTD  PST1A  PST2A   KSTD   EWSD    LN%D   SH%D   HIPD   PWDD   PWTD   SLAD   CHTD   CWID   NWAD   RDPD    RL1D    RL2D    RL3D    RL4D    RL5D    RL6D    RL7D    RL8D    RL9D   RL10D    SNW0C   SNW1C
 1982 106    15     0    0.0      0  0.000      0      0      0      0      0      0      0     0.0  0.000      0      0  0.000  0.000  0.000  0.000  0.000  0.000  0.000    0.00   0.00   0.00      0      0    0.0   0.00   0.00    0.0   0.00    0.00    0.00    0.00    0.00    0.00    0.00    0.00    0.00    0.00    0.00        0       0
 1982 107    16     1    0.0      0  0.000      0      0      0      0      0      0      0     0.0  0.000      0      0  0.000  0.000  0.000  0.000  0.000  0.000  0.000    0.00   0.00   0.00      0      0    0.0   0.00   0.00    0.0   0.00    0.00    0.00    0.00    0.00    0.00    0.00    0.00    0.00    0.00    0.00        0       0
 1982 108    17     2    0.0      0  0.000      0      0      0      0      0      0      0     0.0  0.000      0      0  0.000  0.000  0.000  0.000  0.000  0.000  0.000    0.00   0.00   0.00      0      0    0.0   0.00   0.00    0.0   0.00    0.00    0.00    0.00    0.00    0.00    0.00    0.00    0.00    0.00    0.00        0       0
 1982 109    18     3    0.0      0  0.000      0      0      0      0      0      0      0     0.0  0.000      0      0  0.000  0.000  0.000  0.000  0.000  0.000  0.000    0.00   0.00   0.00      0      0    0.0   0.00   0.00    0.0   0.00    0.00    0.00    0.00    0.00    0.00    0.00    0.00    0.00    0.00    0.00        0       0
 1982 110    19     4    0.0      0  0.000      0      0      0      0      0      0      0     0.0  0.000      0      0  0.000  0.000  0.000  0.000  0.000  0.000  0.000    0.00   0.00   0.00      0      0    0.0   0.00   0.00    0.0   0.00    0.00    0.00    0.00    0.00    0.00    0.00    0.00    0.00    0.00    0.00        0       0
 1982 111    20     5    0.2      0  0.079     31     13      0     43     44     44      0     0.0  0.000      0      0  0.000  0.000  0.000  0.000  0.000  0.000  0.000    3.84   0.00   0.00      0      0  256.8   0.04   0.03    0.0   0.27    0.15    0.15    0.15    0.00    0.00    0.00    0.00    0.00    0.00    0.00        0       1
 1982 112    21     6    0.5      0  0.082     31     14      0     51     45     45      0     0.0  0.000      0      0  0.000  0.000  0.664  0.000  0.000  0.000  0.000    3.78   0.00   0.00      0      0  261.1   0.05   0.03    0.0   0.29    0.18    0.18    0.18    0.01    0.00    0.00    0.00    0.00    0.00    0.00        0       2
 1982 113    22     7    0.8      0  0.084     32     15      0     59     46     46      0     0.0  0.000      0      0  0.000  0.000  0.741  0.000  0.000  0.000  0.000    3.73   0.00   0.00      0      0  264.7   0.06   0.04    0.0   0.31    0.21    0.21    0.20    0.02    0.00    0.00    0.00    0.00    0.00    0.00        0       3
 1982 114    23     8    1.1      0  0.088     32     16      0     67     49     49      0     0.0  0.000      0      0  0.000  0.000  0.543  0.000  0.000  0.000  0.000    3.71   0.00   0.00      0      0  270.2   0.07   0.04    0.0   0.33    0.24    0.24    0.22    0.03    0.00    0.00    0.00    0.00    0.00    0.00        0       4
 1982 115    24     9    1.4      0  0.092     33     18      0     74     51     51      0     0.0  0.000      0      0  0.000  0.000  0.485  0.000  0.000  0.000  0.000    3.69   0.00   0.00      0      0  275.5   0.08   0.05    0.0   0.36    0.26    0.26    0.23    0.04    0.00    0.00    0.00    0.00    0.00    0.00        1       6
 1982 116    25    10    1.7      0  0.097     34     21      0     80     55     55      0     0.0  0.000      0      0  0.000  0.000  0.401  0.000  0.000  0.000  0.000    3.66   0.00   0.00      0      0  283.4   0.09   0.06    0.0   0.38    0.28    0.28    0.25    0.05    0.00    0.00    0.00    0.00    0.00    0.00        1       7
 1982 117    26    11    2.0      0  0.112     38     25      0     83     63     63      0     0.0  0.000      0      0  0.000  0.000  0.118  0.000  0.000  0.000  0.000    3.65   0.00   0.00      0      0  296.9   0.10   0.07    0.0   0.40    0.29    0.29    0.25    0.06    0.00    0.00    0.00    0.00    0.00    0.00        2       9
 1982 118    27    12    2.2      0  0.134     42     28      0     84     70     70      0     0.0  0.000      0      0  0.000  0.000  0.058  0.000  0.000  0.000  0.000    3.60   0.00   0.00      0      0  321.5   0.11   0.07    0.0   0.42    0.29    0.29    0.25    0.06    0.00    0.00    0.00    0.00    0.00    0.00        2      10
 1982 119    28    13    2.5      0  0.160     47     33      0     85     80     80      0     0.0  0.000      0      0  0.000  0.000  0.000  0.000  0.000  0.000  0.000    3.57   0.00   0.00      0      0  339.5   0.12   0.08    0.0   0.44    0.30    0.30    0.25    0.07    0.01    0.00    0.00    0.00    0.00    0.00        2      12
 1982 120    29    14    2.8      0  0.189     54     39      0     87     93     93      0     0.0  0.000      0      0  0.000  0.000  0.000  0.000  0.000  0.000  0.000    3.53   0.00   0.00      0      0  351.7   0.13   0.09    0.0   0.46    0.30    0.30    0.26    0.07    0.01    0.00    0.00    0.00    0.00    0.00        3      14
 1982 121    30    15    3.1      0  0.243     66     42      0     87    108    108      0     0.0  0.000      0      0  0.000  0.000  0.000  0.000  0.000  0.000  0.000    3.53   0.00   0.00      0      0  369.7   0.14   0.10    0.0   0.48    0.30    0.30    0.25    0.07    0.01    0.00    0.00    0.00    0.00    0.00        4      16
 1982 122    31    16    3.4      0  0.298     77     48      0     87    126    126      0     0.0  0.000      0      0  0.000  0.000  0.000  0.000  0.000  0.000  0.000    3.52   0.00   0.00      0      0  384.9   0.15   0.11    0.0   0.50    0.30    0.30    0.26    0.07    0.01    0.00    0.00    0.00    0.00    0.00        4      18
 1982 123    32    17    3.7      0  0.352     90     57      0     89    147    147      0     0.0  0.000      0      0  0.000  0.000  0.000  0.000  0.000  0.000  0.000    3.51   0.00   0.00      0      0  393.1   0.16   0.13    0.0   0.52    0.30    0.30    0.26    0.08    0.02    0.00    0.00    0.00    0.00    0.00        5      19
 1982 124    33    18    4.0      0  0.407    101     69      0     91    171    171      0     0.0  0.000      0      0  0.000  0.000  0.000  0.000  0.000  0.000  0.000    3.51   0.00   0.00      0      0  400.9   0.17   0.15    0.0   0.54    0.31    0.31    0.26    0.08    0.02    0.00    0.00    0.00    0.00    0.00        6      21
 1982 125    34    19    4.3      0  0.464    114     84      0     94    197    197      0     0.0  0.000      0      0  0.000  0.000  0.000  0.000  0.000  0.000  0.000    3.50   0.00   0.00      0      0  409.0   0.18   0.17    0.0   0.56    0.31    0.31    0.26    0.09    0.02    0.00    0.00    0.00    0.00    0.00        7      23
 1982 126    35    20    4.6      0  0.572    138     92      0     94    229    229      0     0.0  0.000      0      0  0.000  0.000  0.000  0.000  0.000  0.000  0.000    3.53   0.00   0.00      0      0  414.7   0.20   0.20    0.0   0.58    0.31    0.31    0.26    0.09    0.03    0.00    0.00    0.00    0.00    0.00        9      25
 1982 127    36    21    4.9      0  0.702    166    101      0     95    267    267      0     0.0  0.000      0      0  0.000  0.000  0.000  0.000  0.000  0.000  0.000    3.55   0.00   0.00      0      0  422.0   0.22   0.22    0.0   0.60    0.32    0.32    0.26    0.09    0.03    0.00    0.00    0.00    0.00    0.00       10      27
 1982 128    37    22    5.2      0  0.831    194    117      0     99    311    311      0     0.0  0.000      0      0  0.000  0.000  0.000  0.000  0.000  0.000  0.000    3.55   0.00   0.00      0      0  428.0   0.23   0.24    0.0   0.62    0.32    0.32    0.27    0.09    0.03    0.01    0.00    0.00    0.00    0.00       12      29
 1982 129    38    23    5.5      0  0.976    226    136      0    102    361    361      0     0.0  0.000      0      0  0.000  0.000  0.000  0.000  0.000  0.000  0.000    3.56   0.00   0.00      0      0  432.6   0.26   0.26    0.0   0.63    0.33    0.33    0.27    0.10    0.04    0.01    0.00    0.00    0.00    0.00       14      31
 1982 130    39    24    5.8      0  1.135    261    158      0    107    419    419      0     0.0  0.000      0      0  0.000  0.000  0.000  0.000  0.000  0.000  0.000    3.56   0.00   0.00      0      0  434.7   0.28   0.29    0.0   0.65    0.34    0.34    0.28    0.11    0.04    0.01    0.00    0.00    0.00    0.00       17      34
 1982 131    40    25    6.1      0  1.320    302    183      0    112    485    485      0     0.0  0.000      0      0  0.000  0.000  0.000  0.000  0.000  0.000  0.000    3.57   0.00   0.00      0      0  437.6   0.30   0.31    0.0   0.67    0.35    0.35    0.29    0.11    0.05    0.02    0.00    0.00    0.00    0.00       20      36
 1982 132    41    26    6.4      0  1.521    347    213      0    119    560    560      0     0.0  0.000      0      0  0.000  0.000  0.000  0.000  0.000  0.000  0.000    3.57   0.00   0.00      0      0  438.5   0.33   0.33    0.0   0.68    0.37    0.37    0.30    0.12    0.06    0.02    0.00    0.00    0.00    0.00       24      38
 1982 133    42    27    6.7      0  1.715    386    244      0    126    631    631      0     0.0  0.000      0      0  0.000  0.000  0.000  0.000  0.000  0.000  0.000    3.63   0.00   0.00      0      0  444.0   0.36   0.35    0.0   0.70    0.39    0.39    0.31    0.13    0.06    0.02    0.00    0.00    0.00    0.00       40      41
 1982 134    43    28    7.0      1  1.906    427    281      0    134    708    708      0     0.0  0.000      0      0  0.000  0.000  0.000  0.000  0.000  0.000  0.000    3.69   0.00   0.00      0      0  446.2   0.39   0.38    0.0   0.72    0.40    0.40    0.33    0.14    0.07    0.03    0.00    0.00    0.00    0.00       60      44
 1982 135    44    29    7.3      1  2.075    468    322      0    143    790    790      0     0.0  0.000      0      0  0.000  0.000  0.000  0.000  0.000  0.000  0.000    3.75   0.00   0.00      0      0  443.0   0.42   0.40    0.0   0.74    0.43    0.43    0.34    0.16    0.08    0.03    0.01    0.00    0.00    0.00       83      47
 1982 136    45    30    7.6      1  2.206    509    367      0    153    876    876      0     0.0  0.000      0      0  0.000  0.000  0.000  0.000  0.000  0.000  0.000    3.81   0.00   0.00      0      0  433.5   0.45   0.42    0.0   0.75    0.45    0.45    0.36    0.17    0.09    0.04    0.01    0.00    0.00    0.00      112      50
 1982 137    46    31    7.9      3  2.327    548    417      0    163    965    965      0     0.0  0.000      0      0  0.000  0.000  0.000  0.000  0.000  0.000  0.000    3.88   0.00   0.00      0      0  424.3   0.48   0.44    0.0   0.77    0.47    0.47    0.37    0.18    0.10    0.05    0.01    0.00    0.00    0.00      144      53
 1982 138    47    32    8.2      3  2.472    591    470      0    173   1061   1065      0     0.0  0.000      4      5  0.000  0.000  0.000  0.000  0.000  0.000  0.000    3.90   0.00   0.00      0      4  418.0   0.51   0.46    0.0   0.79    0.49    0.49    0.39    0.19    0.11    0.05    0.02    0.00    0.00    0.00      168      56
 1982 139    48    33    8.5      3  2.598    637    525      0    182   1162   1178      0     0.0  0.000     17     15  0.000  0.000  0.000  0.000  0.000  0.000  0.000    3.90   0.00   0.01      0     17  408.1   0.54   0.48    0.0   0.80    0.51    0.51    0.41    0.20    0.12    0.06    0.02    0.00    0.00    0.00      185      60
 1982 140    49    34    8.8      3  2.704    677    579      0    190   1256   1295      0     0.0  0.000     39     26  0.000  0.000  0.000  0.000  0.000  0.000  0.000    3.89   0.00   0.03      0     39  399.4   0.57   0.50    0.0   0.82    0.53    0.53    0.42    0.21    0.12    0.06    0.03    0.00    0.00    0.00      203      64
 1982 141    50    35    9.1      3  2.784    707    624      0    197   1332   1403      0     0.0  0.000     71     38  0.000  0.000  0.000  0.000  0.000  0.000  0.000    3.88   0.00   0.05      0     71  393.7   0.60   0.52    0.0   0.83    0.54    0.54    0.43    0.22    0.13    0.06    0.03    0.00    0.00    0.00      218      67
 1982 142    51    36    9.3      3  2.856    740    674      0    203   1415   1527      0     0.0  0.000    113     49  0.000  0.000  0.000  0.000  0.000  0.000  0.000    3.86   0.00   0.07      0    113  385.8   0.63   0.53    0.0   0.85    0.56    0.56    0.44    0.23    0.14    0.07    0.03    0.00    0.00    0.00      232      71
 1982 143    52    37    9.6      3  2.905    772    726      0    209   1498   1661      0     0.0  0.000    164     61  0.000  0.000  0.000  0.000  0.000  0.000  0.000    3.84   0.00   0.10      0    164  376.5   0.66   0.55    0.0   0.87    0.57    0.57    0.45    0.24    0.14    0.07    0.03    0.00    0.00    0.00      245      75
 1982 144    53    38    9.9      5  2.936    799    775      0    214   1574   1799      0     0.0  0.000    225     74  0.000  0.000  0.000  0.000  0.000  0.000  0.000    3.82   0.00   0.13      0    225  367.6   0.70   0.56    0.0   0.88    0.58    0.58    0.45    0.24    0.15    0.07    0.04    0.00    0.00    0.00      259      80
 1982 145    54    39   10.2      5  2.946    812    806      0    216   1617   1915     16     0.0  0.000    298     87  0.000  0.000  0.000  0.000  0.000  0.000  0.000    3.80   0.00   0.16      0    298  362.9   0.73   0.58    0.0   0.90    0.58    0.58    0.46    0.25    0.15    0.08    0.04    0.00    0.00    0.00      271      84
 1982 146    55    40   10.5      5  2.953    829    843      6    219   1672   2053     52    12.1  0.003    381     98  0.000  0.000  0.000  0.000  0.000  0.000  0.000    3.77   1.64   0.19      0    381  356.3   0.76   0.59    0.0   0.91    0.59    0.59    0.46    0.25    0.15    0.08    0.04    0.00    0.00    0.00      283      88
 1982 147    56    41   10.8      5  2.939    834    866     27    219   1700   2181     89    29.9  0.012    481    112  0.000  0.000  0.000  0.000  0.000  0.000  0.000    3.75   5.55   0.22      0    481  352.2   0.80   0.60    0.0   0.93    0.59    0.59    0.46    0.25    0.15    0.08    0.04    0.01    0.00    0.00      295      93
 1982 148    57    42   10.8      5  2.913    835    882     62    218   1717   2313    129    47.8  0.027    597    125  0.000  0.000  0.000  0.000  0.000  0.000  0.000    3.73  10.37   0.26      0    597  349.0   0.83   0.60    0.0   0.94    0.58    0.58    0.46    0.25    0.15    0.08    0.04    0.01    0.00    0.00      308      97
 1982 149    58    43   10.8      5  2.867    826    888    113    215   1714   2441    167    67.6  0.046    728    138  0.000  0.000  0.000  0.000  0.000  0.000  0.000    3.68  15.47   0.30      0    728  347.2   0.87   0.60    0.0   0.96    0.58    0.58    0.45    0.25    0.15    0.08    0.04    0.01    0.00    0.00      322     102
 1982 150    59    44   10.8      5  2.813    812    886    177    212   1698   2571    208    85.2  0.069    873    150  0.000  0.000  0.000  0.000  0.000  0.000  0.000    3.63  20.31   0.34      0    873  346.4   0.90   0.60    0.0   0.98    0.57    0.57    0.44    0.24    0.15    0.08    0.04    0.01    0.00    0.00      338     106
 1982 151    60    45   10.8      5  2.749    792    874    257    207   1666   2697    252   101.9  0.095   1030    163  0.000  0.000  0.000  0.000  0.000  0.000  0.000    3.57  24.93   0.38      0   1030  347.2   0.90   0.60    0.0   0.99    0.56    0.56    0.43    0.24    0.15    0.07    0.04    0.01    0.00    0.00      355     111
 1982 152    61    46   10.8      5  2.680    769    861    354    202   1630   2820    297   119.0  0.125   1190    176  0.000  0.000  0.000  0.000  0.000  0.000  0.000    3.51  29.71   0.42      0   1190  348.4   0.90   0.60    0.0   1.01    0.54    0.54    0.42    0.23    0.14    0.07    0.04    0.01    0.00    0.00      374     115
 1982 153    62    47   10.8      5  2.608    746    847    468    197   1593   2945    337   138.6  0.159   1352    186  0.000  0.000  0.000  0.000  0.000  0.000  0.000    3.43  34.61   0.46      0   1352  349.6   0.90   0.60    0.0   1.01    0.53    0.53    0.42    0.23    0.14    0.07    0.04    0.01    0.00    0.00      394     120
 1982 154    63    48   10.8      5  2.531    721    833    598    192   1554   3061    427   140.1  0.195   1508    192  0.000  0.000  0.000  0.000  0.000  0.000  0.000    3.35  39.66   0.49      0   1508  350.9   0.90   0.60    0.0   1.01    0.52    0.52    0.41    0.22    0.14    0.07    0.04    0.01    0.00    0.00      418     124
 1982 155    64    49   10.8      5  2.453    697    819    766    188   1516   3178    471   162.7  0.241   1662    197  0.000  0.000  0.000  0.000  0.000  0.000  0.000    3.25  46.08   0.52      0   1662  352.0   0.90   0.60    0.0   1.01    0.51    0.51    0.40    0.22    0.13    0.07    0.04    0.01    0.00    0.00      439     128
 1982 156    65    50   10.8      5  2.371    671    806    941    183   1478   3292    506   186.0  0.286   1814    194  0.000  0.000  0.000  0.000  0.000  0.000  0.000    3.15  51.88   0.55      0   1814  353.1   0.90   0.60    0.0   1.01    0.50    0.50    0.39    0.21    0.13    0.07    0.04    0.01    0.00    0.00      471     132
 1982 157    66    51   10.8      7  2.296    648    794   1112    179   1442   3402    522   213.1  0.327   1960    185  0.000  0.000  0.000  0.000  0.000  0.000  0.000    3.04  56.72   0.58      0   1960  354.2   0.90   0.60    0.0   1.01    0.49    0.49    0.38    0.21    0.13    0.07    0.04    0.01    0.00    0.00      503     136
 1982 158    67    52   10.8      7  1.696    478    740   1278    175   1218   3337    522   245.0  0.383   2119    172  0.000  0.000  0.000  0.000  0.000  0.000  0.000    2.85  60.33   0.63      0   2119  354.8   0.90   0.60    0.0   1.01    0.48    0.48    0.37    0.20    0.12    0.06    0.03    0.01    0.00    0.00      714     140
 1982 159    68    53   10.8      7  1.255    352    698   1412    171   1050   3294    522   270.6  0.429   2244    162  0.000  0.000  0.000  0.000  0.000  0.000  0.000    2.68  62.92   0.68      0   2244  356.3   0.90   0.60    0.0   1.01    0.47    0.47    0.36    0.20    0.12    0.06    0.03    0.01    0.00    0.00      869     144
 1982 160    69    54   10.8      7  0.929    260    665   1516    167    925   3265    522   290.5  0.464   2340    154  0.000  0.000  0.000  0.000  0.000  0.000  0.000    2.52  64.77   0.72      0   2340  357.7   0.90   0.60    0.0   1.01    0.46    0.46    0.36    0.19    0.12    0.06    0.03    0.01    0.00    0.00      984     148
 1982 161    70    55   10.8      7  0.689    192    641   1596    163    833   3246    522   305.8  0.492   2413    149  0.000  0.000  0.000  0.000  0.000  0.000  0.000    2.38  66.12   0.74      0   2413  359.1   0.90   0.60    0.0   1.01    0.45    0.45    0.35    0.19    0.12    0.06    0.03    0.00    0.00    0.00     1068     151
 1982 162    71    56   10.8      7  0.512    142    622   1655    159    764   3229    522   317.1  0.512   2466    149  0.000  0.000  0.000  0.000  0.000  0.000  0.000    2.25  67.11   0.76      0   2466  360.4   0.90   0.60    0.0   1.01    0.44    0.44    0.34    0.19    0.11    0.06    0.03    0.00    0.00    0.00     1130     155
 1982 163    72    57   10.8      7  0.380    105    606   1697    156    712   3214    522   325.3  0.528   2502    149  0.000  0.000  0.000  0.000  0.000  0.000  0.000    2.13  67.83   0.78      0   2502  361.8   0.90   0.60    0.0   1.03    0.43    0.43    0.33    0.18    0.11    0.06    0.03    0.00    0.00    0.00     1176     158
 1982 164    73    58   10.8      7  0.283     78    594   1728    152    672   3200    522   331.2  0.540   2527    149  0.000  0.000  0.000  0.000  0.000  0.000  0.000    2.03  68.37   0.79      0   2527  363.1   0.90   0.60    0.0   1.03    0.42    0.42    0.33    0.18    0.11    0.06    0.03    0.00    0.00    0.00     1211     161
 1982 165    74    59   10.8      7  0.211     58    585   1747    149    643   3185    522   334.7  0.548   2542    149  0.000  0.000  0.000  0.000  0.000  0.000  0.000    1.96  68.72   0.80      0   2542  364.5   0.90   0.60    0.0   1.04    0.41    0.41    0.32    0.17    0.11    0.05    0.03    0.00    0.00    0.00     1236     165
 1982 166    75    60   10.8      8  0.158     43    578   1758    145    621   3171    522   336.9  0.554   2550    149  0.000  0.000  0.000  0.000  0.000  0.000  0.000    1.92  68.94   0.80      0   2550  365.7   0.90   0.60    0.0   1.06    0.40    0.40    0.31    0.17    0.10    0.05    0.03    0.00    0.00    0.00     1255     168

*DSSAT Cropping System Model Ver. 4.6.1.000 -release      JUL 11, 2017; 16:24:49
                                                                                
*RUN   4        : SIM                       CRGRO046 5\000005    1              
 MODEL          : CRGRO046 - Dry bean                                           
 EXPERIMENT     : 5\000005 BN PALMIRA_ANALISIS SENSIBILIDAD                     
 DATA PATH      : D:\B\0\00000                                                  
 TREATMENT  1   : SIM                       CRGRO046                            
  
!                                                                                                                                                                                                                                                    Root Dens. (cm/cm3) by soil depth (cm):
!                                                                                                                                                                                                                                                    0-5    5-15   15-25   25-35   35-50   50-65   65-80   80-99  99-122 122-209
@YEAR DOY   DAS   DAP   L#SD   GSTD   LAID   LWAD   SWAD   GWAD   RWAD   VWAD   CWAD   G#AD    GWGD   HIAD   PWAD   P#AD   WSPD   WSGD   NSTD  PST1A  PST2A   KSTD   EWSD    LN%D   SH%D   HIPD   PWDD   PWTD   SLAD   CHTD   CWID   NWAD   RDPD    RL1D    RL2D    RL3D    RL4D    RL5D    RL6D    RL7D    RL8D    RL9D   RL10D    SNW0C   SNW1C
 1983 106    15     0    0.0      0  0.000      0      0      0      0      0      0      0     0.0  0.000      0      0  0.000  0.000  0.000  0.000  0.000  0.000  0.000    0.00   0.00   0.00      0      0    0.0   0.00   0.00    0.0   0.00    0.00    0.00    0.00    0.00    0.00    0.00    0.00    0.00    0.00    0.00        0       0
 1983 107    16     1    0.0      0  0.000      0      0      0      0      0      0      0     0.0  0.000      0      0  0.000  0.000  0.000  0.000  0.000  0.000  0.000    0.00   0.00   0.00      0      0    0.0   0.00   0.00    0.0   0.00    0.00    0.00    0.00    0.00    0.00    0.00    0.00    0.00    0.00    0.00        0       0
 1983 108    17     2    0.0      0  0.000      0      0      0      0      0      0      0     0.0  0.000      0      0  0.000  0.000  0.000  0.000  0.000  0.000  0.000    0.00   0.00   0.00      0      0    0.0   0.00   0.00    0.0   0.00    0.00    0.00    0.00    0.00    0.00    0.00    0.00    0.00    0.00    0.00        0       0
 1983 109    18     3    0.0      0  0.000      0      0      0      0      0      0      0     0.0  0.000      0      0  0.000  0.000  0.000  0.000  0.000  0.000  0.000    0.00   0.00   0.00      0      0    0.0   0.00   0.00    0.0   0.00    0.00    0.00    0.00    0.00    0.00    0.00    0.00    0.00    0.00    0.00        0       0
 1983 110    19     4    0.0      0  0.000      0      0      0      0      0      0      0     0.0  0.000      0      0  0.000  0.000  0.000  0.000  0.000  0.000  0.000    0.00   0.00   0.00      0      0    0.0   0.00   0.00    0.0   0.00    0.00    0.00    0.00    0.00    0.00    0.00    0.00    0.00    0.00    0.00        0       0
 1983 111    20     5    0.2      0  0.079     31     13      0     43     44     44      0     0.0  0.000      0      0  0.000  0.000  0.000  0.000  0.000  0.000  0.000    3.84   0.00   0.00      0      0  256.7   0.04   0.03    0.0   0.27    0.15    0.15    0.15    0.00    0.00    0.00    0.00    0.00    0.00    0.00        0       1
 1983 112    21     6    0.5      0  0.082     31     14      0     51     45     45      0     0.0  0.000      0      0  0.000  0.000  0.654  0.000  0.000  0.000  0.000    3.78   0.00   0.00      0      0  261.7   0.05   0.03    0.0   0.29    0.18    0.18    0.18    0.01    0.00    0.00    0.00    0.00    0.00    0.00        0       2
 1983 113    22     7    0.8      0  0.084     32     15      0     59     46     46      0     0.0  0.000      0      0  0.000  0.000  0.740  0.000  0.000  0.000  0.000    3.72   0.00   0.00      0      0  265.3   0.06   0.04    0.0   0.31    0.21    0.21    0.20    0.02    0.00    0.00    0.00    0.00    0.00    0.00        0       3
 1983 114    23     8    1.1      0  0.087     32     16      0     67     48     48      0     0.0  0.000      0      0  0.000  0.000  0.595  0.000  0.000  0.000  0.000    3.70   0.00   0.00      0      0  271.2   0.07   0.04    0.0   0.33    0.24    0.24    0.22    0.03    0.00    0.00    0.00    0.00    0.00    0.00        0       4
 1983 115    24     9    1.4      0  0.091     33     18      0     74     51     51      0     0.0  0.000      0      0  0.000  0.000  0.487  0.000  0.000  0.000  0.000    3.68   0.00   0.00      0      0  277.5   0.08   0.05    0.0   0.36    0.26    0.26    0.23    0.04    0.00    0.00    0.00    0.00    0.00    0.00        1       6
 1983 116    25    10    1.7      0  0.096     34     21      0     80     55     55      0     0.0  0.000      0      0  0.000  0.000  0.375  0.000  0.000  0.000  0.000    3.66   0.00   0.00      0      0  285.2   0.09   0.06    0.0   0.38    0.28    0.28    0.24    0.05    0.00    0.00    0.00    0.00    0.00    0.00        1       7
 1983 117    26    11    2.0      0  0.112     37     25      0     83     62     62      0     0.0  0.000      0      0  0.000  0.000  0.154  0.000  0.000  0.000  0.000    3.64   0.00   0.00      0      0  301.1   0.10   0.07    0.0   0.40    0.29    0.29    0.25    0.06    0.00    0.00    0.00    0.00    0.00    0.00        2       9
 1983 118    27    12    2.3      0  0.138     42     28      0     84     71     71      0     0.0  0.000      0      0  0.000  0.000  0.040  0.000  0.000  0.000  0.000    3.59   0.00   0.00      0      0  326.2   0.11   0.07    0.0   0.42    0.29    0.29    0.25    0.06    0.00    0.00    0.00    0.00    0.00    0.00        2      11
 1983 119    28    13    2.6      0  0.165     48     33      0     85     81     81      0     0.0  0.000      0      0  0.000  0.000  0.000  0.000  0.000  0.000  0.000    3.56   0.00   0.00      0      0  342.8   0.12   0.08    0.0   0.44    0.30    0.30    0.25    0.07    0.01    0.00    0.00    0.00    0.00    0.00        2      12
 1983 120    29    14    2.9      0  0.197     55     39      0     87     94     94      0     0.0  0.000      0      0  0.000  0.000  0.000  0.000  0.000  0.000  0.000    3.53   0.00   0.00      0      0  358.2   0.13   0.09    0.0   0.46    0.30    0.30    0.26    0.07    0.01    0.00    0.00    0.00    0.00    0.00        3      14
 1983 121    30    15    3.2      0  0.253     67     42      0     87    110    110      0     0.0  0.000      0      0  0.000  0.000  0.000  0.000  0.000  0.000  0.000    3.52   0.00   0.00      0      0  374.7   0.14   0.10    0.0   0.48    0.30    0.30    0.25    0.07    0.01    0.00    0.00    0.00    0.00    0.00        4      16
 1983 122    31    16    3.5      0  0.309     80     49      0     87    129    129      0     0.0  0.000      0      0  0.000  0.000  0.000  0.000  0.000  0.000  0.000    3.51   0.00   0.00      0      0  387.9   0.15   0.12    0.0   0.50    0.30    0.30    0.26    0.07    0.01    0.00    0.00    0.00    0.00    0.00        4      18
 1983 123    32    17    3.8      0  0.364     92     58      0     89    150    150      0     0.0  0.000      0      0  0.000  0.000  0.000  0.000  0.000  0.000  0.000    3.51   0.00   0.00      0      0  395.5   0.16   0.14    0.0   0.52    0.30    0.30    0.26    0.08    0.02    0.00    0.00    0.00    0.00    0.00        5      20
 1983 124    33    18    4.1      0  0.419    103     71      0     91    174    174      0     0.0  0.000      0      0  0.000  0.000  0.000  0.000  0.000  0.000  0.000    3.50   0.00   0.00      0      0  406.0   0.17   0.16    0.0   0.54    0.31    0.31    0.26    0.08    0.02    0.00    0.00    0.00    0.00    0.00        6      22
 1983 125    34    19    4.4      0  0.490    119     83      0     93    203    203      0     0.0  0.000      0      0  0.000  0.000  0.000  0.000  0.000  0.000  0.000    3.51   0.00   0.00      0      0  410.4   0.19   0.18    0.0   0.56    0.31    0.31    0.26    0.09    0.02    0.00    0.00    0.00    0.00    0.00        8      24
 1983 126    35    20    4.7      0  0.605    145     92      0     94    237    237      0     0.0  0.000      0      0  0.000  0.000  0.000  0.000  0.000  0.000  0.000    3.53   0.00   0.00      0      0  416.8   0.20   0.20    0.0   0.58    0.31    0.31    0.26    0.09    0.03    0.00    0.00    0.00    0.00    0.00        9      26
 1983 127    36    21    5.0      0  0.743    174    102      0     96    276    276      0     0.0  0.000      0      0  0.000  0.000  0.000  0.000  0.000  0.000  0.000    3.55   0.00   0.00      0      0  426.2   0.22   0.22    0.0   0.60    0.32    0.32    0.26    0.09    0.03    0.00    0.00    0.00    0.00    0.00       11      28
 1983 128    37    22    5.3      0  0.873    204    120      0     99    323    323      0     0.0  0.000      0      0  0.000  0.000  0.000  0.000  0.000  0.000  0.000    3.55   0.00   0.00      0      0  427.9   0.24   0.25    0.0   0.62    0.32    0.32    0.27    0.10    0.03    0.01    0.00    0.00    0.00    0.00       13      30
 1983 129    38    23    5.6      0  1.024    238    140      0    103    378    378      0     0.0  0.000      0      0  0.000  0.000  0.000  0.000  0.000  0.000  0.000    3.56   0.00   0.00      0      0  430.7   0.26   0.27    0.0   0.64    0.33    0.33    0.28    0.10    0.04    0.01    0.00    0.00    0.00    0.00       15      32
 1983 130    39    24    5.9      0  1.198    276    164      0    108    440    440      0     0.0  0.000      0      0  0.000  0.000  0.000  0.000  0.000  0.000  0.000    3.56   0.00   0.00      0      0  434.2   0.29   0.29    0.0   0.66    0.34    0.34    0.28    0.11    0.04    0.01    0.00    0.00    0.00    0.00       18      34
 1983 131    40    25    6.2      0  1.405    317    191      0    114    508    508      0     0.0  0.000      0      0  0.000  0.000  0.000  0.000  0.000  0.000  0.000    3.56   0.00   0.00      0      0  443.0   0.32   0.32    0.0   0.67    0.36    0.36    0.29    0.12    0.05    0.02    0.00    0.00    0.00    0.00       21      37
 1983 132    41    26    6.5      0  1.591    361    221      0    121    582    582      0     0.0  0.000      0      0  0.000  0.000  0.000  0.000  0.000  0.000  0.000    3.60   0.00   0.00      0      0  440.7   0.35   0.34    0.0   0.69    0.37    0.37    0.30    0.13    0.06    0.02    0.00    0.00    0.00    0.00       30      39
 1983 133    42    27    6.8      0  1.776    402    255      0    128    657    657      0     0.0  0.000      0      0  0.000  0.000  0.000  0.000  0.000  0.000  0.000    3.65   0.00   0.00      0      0  441.8   0.38   0.36    0.0   0.71    0.39    0.39    0.32    0.14    0.06    0.03    0.00    0.00    0.00    0.00       48      42
 1983 134    43    28    7.1      1  1.956    443    294      0    137    737    737      0     0.0  0.000      0      0  0.000  0.000  0.000  0.000  0.000  0.000  0.000    3.72   0.00   0.00      0      0  441.8   0.41   0.39    0.0   0.73    0.41    0.41    0.33    0.15    0.07    0.03    0.01    0.00    0.00    0.00       69      45
 1983 135    44    29    7.4      1  2.122    482    337      0    146    819    819      0     0.0  0.000      0      0  0.000  0.000  0.000  0.000  0.000  0.000  0.000    3.78   0.00   0.00      0      0  440.1   0.44   0.41    0.0   0.74    0.43    0.43    0.35    0.16    0.08    0.04    0.01    0.00    0.00    0.00       94      48
 1983 136    45    30    7.7      1  2.260    521    383      0    156    905    905      0     0.0  0.000      0      0  0.000  0.000  0.000  0.000  0.000  0.000  0.000    3.84   0.00   0.00      0      0  433.4   0.47   0.43    0.0   0.76    0.45    0.45    0.36    0.17    0.09    0.04    0.01    0.00    0.00    0.00      123      51
 1983 137    46    31    8.0      3  2.378    561    435      0    166    996    996      0     0.0  0.000      0      0  0.000  0.000  0.000  0.000  0.000  0.000  0.000    3.90   0.00   0.00      0      0  424.3   0.50   0.45    0.0   0.78    0.48    0.48    0.38    0.18    0.10    0.05    0.01    0.00    0.00    0.00      155      54
 1983 138    47    32    8.3      3  2.530    608    493      0    176   1101   1105      0     0.0  0.000      3      4  0.000  0.000  0.000  0.000  0.000  0.000  0.000    3.90   0.00   0.00      0      3  415.8   0.52   0.47    0.0   0.79    0.50    0.50    0.40    0.20    0.11    0.05    0.02    0.00    0.00    0.00      173      57
 1983 139    48    33    8.6      3  2.653    655    552      0    186   1208   1223      0     0.0  0.000     16     15  0.000  0.000  0.000  0.000  0.000  0.000  0.000    3.90   0.00   0.01      0     16  404.9   0.55   0.49    0.0   0.81    0.52    0.52    0.41    0.21    0.12    0.06    0.02    0.00    0.00    0.00      192      61
 1983 140    49    34    8.9      3  2.757    694    608      0    194   1303   1340      0     0.0  0.000     38     26  0.000  0.000  0.000  0.000  0.000  0.000  0.000    3.89   0.00   0.03      0     38  397.1   0.59   0.51    0.0   0.83    0.54    0.54    0.42    0.22    0.13    0.06    0.03    0.00    0.00    0.00      210      65
 1983 141    50    35    9.2      3  2.844    734    667      0    202   1401   1470      0     0.0  0.000     69     38  0.000  0.000  0.000  0.000  0.000  0.000  0.000    3.88   0.00   0.05      0     69  387.5   0.62   0.52    0.0   0.84    0.56    0.56    0.44    0.23    0.13    0.07    0.03    0.00    0.00    0.00      227      69
[...]
 2011 107    16     1    0.0      0  0.000      0      0      0      0      0      0      0     0.0  0.000      0      0  0.000  0.000  0.000  0.000  0.000  0.000  0.000    0.00   0.00   0.00      0      0    0.0   0.00   0.00    0.0   0.00    0.00    0.00    0.00    0.00    0.00    0.00    0.00    0.00    0.00    0.00        0       0
 2011 108    17     2    0.0      0  0.000      0      0      0      0      0      0      0     0.0  0.000      0      0  0.000  0.000  0.000  0.000  0.000  0.000  0.000    0.00   0.00   0.00      0      0    0.0   0.00   0.00    0.0   0.00    0.00    0.00    0.00    0.00    0.00    0.00    0.00    0.00    0.00    0.00        0       0
 2011 109    18     3    0.0      0  0.000      0      0      0      0      0      0      0     0.0  0.000      0      0  0.000  0.000  0.000  0.000  0.000  0.000  0.000    0.00   0.00   0.00      0      0    0.0   0.00   0.00    0.0   0.00    0.00    0.00    0.00    0.00    0.00    0.00    0.00    0.00    0.00    0.00        0       0
 2011 110    19     4    0.0      0  0.000      0      0      0      0      0      0      0     0.0  0.000      0      0  0.000  0.000  0.000  0.000  0.000  0.000  0.000    0.00   0.00   0.00      0      0    0.0   0.00   0.00    0.0   0.00    0.00    0.00    0.00    0.00    0.00    0.00    0.00    0.00    0.00    0.00        0       0
 2011 111    20     5    0.2      0  0.079     31     13      0     43     44     44      0     0.0  0.000      0      0  0.000  0.000  0.000  0.000  0.000  0.000  0.000    3.84   0.00   0.00      0      0  256.7   0.04   0.03    0.0   0.27    0.15    0.15    0.15    0.00    0.00    0.00    0.00    0.00    0.00    0.00        0       1
 2011 112    21     6    0.5      0  0.082     31     14      0     51     45     45      0     0.0  0.000      0      0  0.000  0.000  0.674  0.000  0.000  0.000  0.000    3.78   0.00   0.00      0      0  261.2   0.05   0.03    0.0   0.29    0.19    0.19    0.18    0.01    0.00    0.00    0.00    0.00    0.00    0.00        0       2
 2011 113    22     7    0.8      0  0.084     32     15      0     60     47     47      0     0.0  0.000      0      0  0.000  0.000  0.703  0.000  0.000  0.000  0.000    3.73   0.00   0.00      0      0  264.8   0.06   0.04    0.0   0.31    0.22    0.22    0.20    0.02    0.00    0.00    0.00    0.00    0.00    0.00        0       3
 2011 114    23     8    1.1      0  0.088     32     16      0     68     49     49      0     0.0  0.000      0      0  0.000  0.000  0.555  0.000  0.000  0.000  0.000    3.71   0.00   0.00      0      0  270.3   0.07   0.04    0.0   0.33    0.24    0.24    0.22    0.03    0.00    0.00    0.00    0.00    0.00    0.00        0       4
 2011 115    24     9    1.4      0  0.092     33     19      0     76     52     52      0     0.0  0.000      0      0  0.000  0.000  0.476  0.000  0.000  0.000  0.000    3.68   0.00   0.00      0      0  277.1   0.08   0.05    0.0   0.36    0.27    0.27    0.24    0.05    0.00    0.00    0.00    0.00    0.00    0.00        1       6
 2011 116    25    10    1.7      0  0.098     34     22      0     82     57     57      0     0.0  0.000      0      0  0.000  0.000  0.298  0.000  0.000  0.000  0.000    3.66   0.00   0.00      0      0  284.0   0.09   0.06    0.0   0.38    0.29    0.29    0.25    0.06    0.00    0.00    0.00    0.00    0.00    0.00        1       7
 2011 117    26    11    2.0      0  0.113     38     27      0     85     64     64      0     0.0  0.000      0      0  0.000  0.000  0.146  0.000  0.000  0.000  0.000    3.63   0.00   0.00      0      0  299.9   0.10   0.07    0.0   0.40    0.30    0.30    0.26    0.06    0.00    0.00    0.00    0.00    0.00    0.00        2       9
 2011 118    27    12    2.3      0  0.140     44     31      0     86     74     74      0     0.0  0.000      0      0  0.000  0.000  0.000  0.000  0.000  0.000  0.000    3.58   0.00   0.00      0      0  320.4   0.11   0.07    0.0   0.42    0.30    0.30    0.26    0.07    0.00    0.00    0.00    0.00    0.00    0.00        2      11
 2011 119    28    13    2.6      0  0.167     50     37      0     88     86     86      0     0.0  0.000      0      0  0.000  0.000  0.000  0.000  0.000  0.000  0.000    3.54   0.00   0.00      0      0  336.3   0.12   0.08    0.0   0.44    0.30    0.30    0.26    0.07    0.01    0.00    0.00    0.00    0.00    0.00        3      13
 2011 120    29    14    2.9      0  0.201     57     43      0     89    100    100      0     0.0  0.000      0      0  0.000  0.000  0.000  0.000  0.000  0.000  0.000    3.52   0.00   0.00      0      0  352.3   0.13   0.09    0.0   0.46    0.31    0.31    0.26    0.07    0.01    0.00    0.00    0.00    0.00    0.00        3      15
 2011 121    30    15    3.2      0  0.259     70     47      0     89    117    117      0     0.0  0.000      0      0  0.000  0.000  0.000  0.000  0.000  0.000  0.000    3.52   0.00   0.00      0      0  369.2   0.14   0.10    0.0   0.48    0.31    0.31    0.26    0.08    0.01    0.00    0.00    0.00    0.00    0.00        4      16
 2011 122    31    16    3.5      0  0.314     83     55      0     91    138    138      0     0.0  0.000      0      0  0.000  0.000  0.000  0.000  0.000  0.000  0.000    3.52   0.00   0.00      0      0  377.3   0.15   0.12    0.0   0.50    0.31    0.31    0.26    0.08    0.01    0.00    0.00    0.00    0.00    0.00        5      18
 2011 123    32    17    3.8      0  0.369     93     66      0     93    159    159      0     0.0  0.000      0      0  0.000  0.000  0.000  0.000  0.000  0.000  0.000    3.50   0.00   0.00      0      0  395.9   0.16   0.14    0.0   0.53    0.31    0.31    0.27    0.08    0.02    0.00    0.00    0.00    0.00    0.00        5      20
 2011 124    33    18    4.1      0  0.423    105     80      0     96    185    185      0     0.0  0.000      0      0  0.000  0.000  0.000  0.000  0.000  0.000  0.000    3.50   0.00   0.00      0      0  403.4   0.17   0.16    0.0   0.55    0.32    0.32    0.27    0.09    0.02    0.00    0.00    0.00    0.00    0.00        7      22
 2011 125    34    19    4.4      0  0.498    122     94      0     98    215    215      0     0.0  0.000      0      0  0.000  0.000  0.000  0.000  0.000  0.000  0.000    3.51   0.00   0.00      0      0  409.2   0.19   0.18    0.0   0.56    0.33    0.33    0.27    0.09    0.03    0.00    0.00    0.00    0.00    0.00        8      24
 2011 126    35    20    4.7      0  0.619    150    103      0     99    252    252      0     0.0  0.000      0      0  0.000  0.000  0.000  0.000  0.000  0.000  0.000    3.54   0.00   0.00      0      0  413.4   0.20   0.20    0.0   0.58    0.33    0.33    0.27    0.09    0.03    0.00    0.00    0.00    0.00    0.00        9      27
 2011 127    36    21    5.0      0  0.758    180    116      0    101    296    296      0     0.0  0.000      0      0  0.000  0.000  0.000  0.000  0.000  0.000  0.000    3.55   0.00   0.00      0      0  422.0   0.22   0.23    0.0   0.60    0.33    0.33    0.28    0.10    0.03    0.00    0.00    0.00    0.00    0.00       11      29
 2011 128    37    22    5.3      0  0.902    212    135      0    105    346    346      0     0.0  0.000      0      0  0.000  0.000  0.000  0.000  0.000  0.000  0.000    3.56   0.00   0.00      0      0  426.1   0.24   0.25    0.0   0.62    0.34    0.34    0.28    0.10    0.04    0.01    0.00    0.00    0.00    0.00       13      31
 2011 129    38    23    5.6      0  1.067    249    157      0    109    406    406      0     0.0  0.000      0      0  0.000  0.000  0.000  0.000  0.000  0.000  0.000    3.57   0.00   0.00      0      0  429.0   0.26   0.27    0.0   0.64    0.35    0.35    0.29    0.11    0.04    0.01    0.00    0.00    0.00    0.00       15      33
 2011 130    39    24    5.9      0  1.245    291    183      0    115    474    474      0     0.0  0.000      0      0  0.000  0.000  0.000  0.000  0.000  0.000  0.000    3.57   0.00   0.00      0      0  428.1   0.29   0.29    0.0   0.66    0.36    0.36    0.30    0.12    0.05    0.01    0.00    0.00    0.00    0.00       18      36
 2011 131    40    25    6.2      0  1.464    337    213      0    121    550    550      0     0.0  0.000      0      0  0.000  0.000  0.000  0.000  0.000  0.000  0.000    3.57   0.00   0.00      0      0  434.1   0.32   0.32    0.0   0.68    0.38    0.38    0.31    0.13    0.06    0.02    0.00    0.00    0.00    0.00       22      38
 2011 132    41    26    6.5      0  1.682    384    246      0    129    631    631      0     0.0  0.000      0      0  0.000  0.000  0.000  0.000  0.000  0.000  0.000    3.61   0.00   0.00      0      0  437.6   0.35   0.34    0.0   0.69    0.40    0.40    0.32    0.14    0.06    0.02    0.00    0.00    0.00    0.00       33      41
 2011 133    42    27    6.8      0  1.892    429    283      0    138    712    712      0     0.0  0.000      0      0  0.000  0.000  0.000  0.000  0.000  0.000  0.000    3.67   0.00   0.00      0      0  441.2   0.38   0.36    0.0   0.71    0.42    0.42    0.34    0.15    0.07    0.03    0.00    0.00    0.00    0.00       51      44
 2011 134    43    28    7.1      1  2.104    470    322      0    146    792    792      0     0.0  0.000      0      0  0.000  0.000  0.000  0.000  0.000  0.000  0.000    3.72   0.00   0.00      0      0  447.7   0.41   0.39    0.0   0.73    0.44    0.44    0.35    0.16    0.08    0.03    0.01    0.00    0.00    0.00       72      46
 2011 135    44    29    7.4      1  2.285    516    369      0    156    885    885      0     0.0  0.000      0      0  0.000  0.000  0.000  0.000  0.000  0.000  0.000    3.78   0.00   0.00      0      0  442.8   0.43   0.40    0.0   0.74    0.46    0.46    0.37    0.17    0.09    0.04    0.01    0.00    0.00    0.00       98      49
 2011 136    45    30    7.7      1  2.442    561    421      0    167    982    982      0     0.0  0.000      0      0  0.000  0.000  0.000  0.000  0.000  0.000  0.000    3.84   0.00   0.00      0      0  435.4   0.46   0.43    0.0   0.76    0.48    0.48    0.39    0.19    0.10    0.05    0.01    0.00    0.00    0.00      129      53
 2011 137    46    31    8.0      3  2.572    604    478      0    179   1083   1083      0     0.0  0.000      0      0  0.000  0.000  0.000  0.000  0.000  0.000  0.000    3.91   0.00   0.00      0      0  425.5   0.49   0.45    0.0   0.78    0.51    0.51    0.41    0.20    0.11    0.05    0.02    0.00    0.00    0.00      166      56
 2011 138    47    32    8.3      3  2.726    660    544      0    191   1204   1208      0     0.0  0.000      4      4  0.000  0.000  0.000  0.000  0.000  0.000  0.000    3.92   0.00   0.00      0      4  412.8   0.52   0.47    0.0   0.79    0.54    0.54    0.42    0.22    0.12    0.06    0.02    0.00    0.00    0.00      187      60
 2011 139    48    33    8.6      3  2.864    711    609      0    202   1320   1337      0     0.0  0.000     17     16  0.000  0.000  0.000  0.000  0.000  0.000  0.000    3.92   0.00   0.01      0     17  402.8   0.55   0.48    0.0   0.81    0.56    0.56    0.44    0.23    0.13    0.06    0.03    0.00    0.00    0.00      208      64
 2011 140    49    34    8.9      3  2.973    761    677      0    212   1437   1478      0     0.0  0.000     40     28  0.000  0.000  0.000  0.000  0.000  0.000  0.000    3.91   0.00   0.03      0     40  390.7   0.58   0.50    0.0   0.82    0.59    0.59    0.46    0.24    0.14    0.07    0.03    0.00    0.00    0.00      228      68
 2011 141    50    35    9.2      3  3.061    805    742      0    222   1547   1621      0     0.0  0.000     75     41  0.000  0.000  0.000  0.000  0.000  0.000  0.000    3.91   0.00   0.05      0     75  380.4   0.61   0.52    0.0   0.84    0.61    0.61    0.47    0.25    0.15    0.07    0.04    0.00    0.00    0.00      248      73
 2011 142    51    36    9.4      3  3.131    844    804      0    230   1648   1769      0     0.0  0.000    121     55  0.000  0.000  0.000  0.000  0.000  0.000  0.000    3.89   0.00   0.07      0    121  371.2   0.64   0.54    0.0   0.86    0.62    0.62    0.49    0.26    0.16    0.08    0.04    0.00    0.00    0.00      267      77
 2011 143    52    37    9.7      3  3.184    880    867      0    237   1747   1925      0     0.0  0.000    178     70  0.000  0.000  0.000  0.000  0.000  0.000  0.000    3.87   0.00   0.09      0    178  361.6   0.68   0.55    0.0   0.87    0.64    0.64    0.50    0.27    0.16    0.08    0.04    0.00    0.00    0.00      284      82
 2011 144    53    38   10.0      5  3.220    913    928      0    244   1841   2086      0     0.0  0.000    246     84  0.000  0.000  0.000  0.000  0.000  0.000  0.000    3.85   0.00   0.12      0    246  352.6   0.71   0.57    0.0   0.89    0.65    0.65    0.51    0.28    0.17    0.09    0.05    0.00    0.00    0.00      300      87
 2011 145    54    39   10.3      5  3.237    937    980      0    248   1917   2242     14     0.0  0.000    324     98  0.000  0.000  0.000  0.000  0.000  0.000  0.000    3.83   0.00   0.14      0    324  345.4   0.75   0.58    0.0   0.91    0.66    0.66    0.52    0.28    0.17    0.09    0.05    0.01    0.00    0.00      317      92
 2011 146    55    40   10.7      5  3.246    959   1028      5    252   1987   2400     52    10.2  0.002    413    113  0.000  0.000  0.000  0.000  0.000  0.000  0.000    3.80   1.29   0.17      0    413  338.6   0.78   0.59    0.0   0.92    0.67    0.67    0.52    0.29    0.18    0.09    0.05    0.01    0.00    0.00      335      98
 2011 147    56    41   10.7      5  3.235    971   1067     25    254   2039   2556     93    26.8  0.010    517    127  0.000  0.000  0.000  0.000  0.000  0.000  0.000    3.77   4.84   0.20      0    517  333.0   0.82   0.60    0.0   0.94    0.67    0.67    0.52    0.29    0.18    0.09    0.05    0.01    0.00    0.00      354     103
 2011 148    57    42   10.7      5  3.206    975   1093     61    254   2068   2709    136    44.8  0.023    641    141  0.000  0.000  0.000  0.000  0.000  0.000  0.000    3.75   9.52   0.24      0    641  328.9   0.86   0.60    0.0   0.96    0.67    0.67    0.52    0.29    0.18    0.09    0.05    0.01    0.00    0.00      373     109
 2011 149    58    43   10.7      5  3.153    966   1104    114    251   2070   2852    182    62.5  0.040    782    156  0.000  0.000  0.000  0.000  0.000  0.000  0.000    3.70  14.52   0.27      0    782  326.4   0.89   0.60    0.0   0.97    0.66    0.66    0.51    0.29    0.18    0.09    0.05    0.01    0.00    0.00      395     114
 2011 150    59    44   10.7      5  3.091    951   1106    183    248   2058   2991    276    66.2  0.061    933    169  0.000  0.000  0.000  0.000  0.000  0.000  0.000    3.65  19.58   0.31      0    933  325.0   0.89   0.60    0.0   0.99    0.65    0.65    0.51    0.29    0.18    0.09    0.05    0.01    0.00    0.00      424     119
 2011 151    60    45   10.7      5  3.019    926   1090    288    242   2016   3136    324    88.9  0.092   1120    183  0.000  0.000  0.000  0.000  0.000  0.000  0.000    3.59  25.70   0.36      0   1120  326.0   0.89   0.60    0.0   1.01    0.64    0.64    0.50    0.28    0.17    0.09    0.05    0.01    0.00    0.00      447     125
 2011 152    61    46   10.7      5  2.938    898   1072    414    236   1970   3269    373   111.0  0.127   1298    197  0.000  0.000  0.000  0.000  0.000  0.000  0.000    3.52  31.90   0.40      0   1298  327.2   0.89   0.60    0.0   1.01    0.63    0.63    0.49    0.27    0.17    0.09    0.05    0.01    0.00    0.00      472     130
 2011 153    62    47   10.7      5  2.858    870   1055    563    231   1925   3392    373   150.7  0.166   1467    209  0.000  0.000  0.000  0.000  0.000  0.000  0.000    3.45  38.34   0.43      0   1467  328.5   0.89   0.60    0.0   1.01    0.61    0.61    0.48    0.27    0.17    0.09    0.05    0.01    0.00    0.00      492     135
 2011 154    63    48   10.7      5  2.773    841   1037    710    225   1877   3523    424   167.5  0.201   1645    216  0.000  0.000  0.000  0.000  0.000  0.000  0.000    3.36  43.13   0.47      0   1645  329.8   0.89   0.60    0.0   1.01    0.60    0.60    0.47    0.26    0.16    0.09    0.05    0.01    0.00    0.00      518     140
 2011 155    64    49   10.7      5  2.686    811   1019    878    220   1830   3647    475   184.9  0.241   1817    221  0.000  0.000  0.000  0.000  0.000  0.000  0.000    3.27  48.30   0.50      0   1817  331.1   0.89   0.60    0.0   1.01    0.59    0.59    0.46    0.26    0.16    0.08    0.05    0.01    0.00    0.00      542     144
 2011 156    65    50   10.7      7  2.595    781   1001   1057    215   1782   3780    522   202.5  0.280   1997    222  0.000  0.000  0.000  0.000  0.000  0.000  0.000    3.16  52.93   0.53      0   1997  332.2   0.89   0.60    0.0   1.02    0.58    0.58    0.45    0.25    0.16    0.08    0.05    0.01    0.00    0.00      574     149
 2011 157    66    51   10.7      7  1.914    575    934   1252    210   1508   3668    548   228.4  0.341   2160    214  0.000  0.000  0.000  0.000  0.000  0.000  0.000    2.97  57.96   0.59      0   2160  333.2   0.89   0.60    0.0   1.04    0.57    0.57    0.44    0.25    0.15    0.08    0.05    0.01    0.00    0.00      850     154
 2011 158    67    52   10.7      7  1.415    423    883   1414    205   1306   3613    553   255.9  0.391   2307    201  0.000  0.000  0.000  0.000  0.000  0.000  0.000    2.79  61.31   0.64      0   2307  334.3   0.89   0.60    0.0   1.04    0.55    0.55    0.43    0.24    0.15    0.08    0.04    0.01    0.00    0.00     1044     158
 2011 159    68    53   10.7      7  1.048    313    845   1543    201   1158   3586    553   279.2  0.430   2428    186  0.000  0.000  0.000  0.000  0.000  0.000  0.000    2.62  63.56   0.68      0   2428  335.0   0.89   0.60    0.0   1.04    0.54    0.54    0.42    0.24    0.15    0.08    0.04    0.01    0.00    0.00     1181     163
 2011 160    69    54   10.7      7  0.776    231    818   1642    196   1049   3568    553   297.1  0.460   2519    174  0.000  0.000  0.000  0.000  0.000  0.000  0.000    2.46  65.17   0.71      0   2519  335.6   0.89   0.60    0.0   1.04    0.53    0.53    0.41    0.23    0.14    0.08    0.04    0.01    0.00    0.00     1283     167
 2011 161    70    55   10.7      7  0.576    172    798   1713    191    969   3554    553   310.0  0.482   2584    161  0.000  0.000  0.000  0.000  0.000  0.000  0.000    2.31  66.30   0.73      0   2584  335.8   0.89   0.60    0.0   1.04    0.52    0.52    0.40    0.23    0.14    0.07    0.04    0.01    0.00    0.00     1358     171
 2011 162    71    56   10.7      7  0.428    127    781   1768    187    908   3540    553   319.8  0.499   2632    158  0.000  0.000  0.000  0.000  0.000  0.000  0.000    2.18  67.15   0.74      0   2632  336.5   0.89   0.60    0.0   1.04    0.51    0.51    0.39    0.22    0.14    0.07    0.04    0.01    0.00    0.00     1414     176
 2011 163    72    57   10.7      7  0.318     94    767   1806    183    861   3527    553   326.9  0.512   2665    158  0.000  0.000  0.000  0.000  0.000  0.000  0.000    2.07  67.78   0.76      0   2665  337.4   0.89   0.60    0.0   1.04    0.50    0.50    0.38    0.22    0.13    0.07    0.04    0.01    0.00    0.00     1455     180
 2011 164    73    58   10.7      7  0.237     70    755   1834    179    825   3513    553   332.0  0.522   2688    158  0.000  0.000  0.000  0.000  0.000  0.000  0.000    1.98  68.25   0.77      0   2688  338.6   0.89   0.60    0.0   1.06    0.48    0.48    0.38    0.21    0.13    0.07    0.04    0.01    0.00    0.00     1486     184
 2011 165    74    59   10.7      8  0.177     52    745   1851    175    797   3497    553   334.9  0.529   2700    158  0.000  0.000  0.000  0.000  0.000  0.000  0.000    1.93  68.54   0.77      0   2700  340.1   0.89   0.60    0.0   1.06    0.47    0.47    0.37    0.21    0.13    0.07    0.04    0.01    0.00    0.00     1508     187
