*SIMULATION OVERVIEW FILE

*DSSAT Cropping System Model Ver. 4.6.1.000 -release      JUL 11, 2017; 16:24:44
                                                                                
*RUN   1        : SIM                       CRGRO046 2\000002    1              
 MODEL          : CRGRO046 - Dry bean                                           
 EXPERIMENT     : 2\000002 BN PALMIRA_ANALISIS SENSIBILIDAD                     
 DATA PATH      : D:\B\0\00000                                                  
 TREATMENT  1   : SIM                       CRGRO046                            
                                                                                
                                                                                
 CROP           : Dry bean         CULTIVAR : Jatu Rong        ECOTYPE :ANDIND  
 STARTING DATE  : APR  1 1980                                                   
 PLANTING DATE  : AUTOMATIC PLANTING PLANTS/m2 : 26.6     ROW SPACING :  60.cm  
 WEATHER        : PALM   1980                                                   
 SOIL           : CCPA000030     TEXTURE : C     -   Silty Clay Loam            
 WATER BALANCE  : NOT SIMULATED ; NO H2O-STRESS                                 
 IRRIGATION     :                                                               
 NITROGEN BAL.  : NOT SIMULATED ; NO N-STRESS                                   
 N-FERTILIZER   :                                                               
 RESIDUE/MANURE :                                                               
 ENVIRONM. OPT. : DAYL=    0.00  SRAD=    0.00  TMAX=    0.00  TMIN=    0.00    
                  RAIN=    0.00  CO2 =    0.00  DEW =    0.00  WIND=    0.00    
 SIMULATION OPT : WATER   :N  NITROGEN:N  N-FIX:N  PHOSPH :N  PESTS  :N         
                  PHOTO   :L  ET      :R  INFIL:S  HYDROL :R  SOM    :G         
                  CO2 338ppm  NSWIT   :1  EVAP :S  SOIL   :2  STEMP  :D         
 MANAGEMENT OPT : PLANTING:A  IRRIG   :A  FERT :D  RESIDUE:N  HARVEST:M         
                  WEATHER :M  TILLAGE :N                                        
                                                                                
*SUMMARY OF SOIL AND GENETIC INPUT PARAMETERS                                   
                                                                                
 Dry bean   CULTIVAR :000002-Jatu Rong          ECOTYPE :ANDIND                 
 CSDVAR :12.17  PPSEN  : 0.05  EMG-FLW:19.00  FLW-FSD: 9.00  FSD-PHM : 11.00    
 WTPSD  :0.600  SDPDVR : 3.50  SDFDUR :15.00  PODDUR :10.00  XFRUIT  :  1.00    
 THRESH : 78.0  SDPRO  :0.235  SDLIP   : 0.030                                  


*SIMULATED CROP AND SOIL STATUS AT MAIN DEVELOPMENT STAGES

 RUN NO.     1     SIM                     

        CROP GROWTH     BIOMASS         LEAF   CROP N     STRESS      STRESS                                           
   DATE  AGE STAGE        kg/ha    LAI   NUM  kg/ha  %   H2O  Nitr Phos1 Phos2  RSTG                                   
 ------  --- ----------   -----  -----  ----  ---  ---  ----  ----  ----  ----  ----                                   
  1 APR    0 Start Sim        0   0.00   0.0    0  0.0  0.00  0.00  0.00  0.00     0
 15 APR    0 Sowing           0   0.00   0.0    0  0.0  0.00  0.00  0.00  0.00     0
 20 APR    5 Emergence       44   0.08   0.2    1  3.4  0.00  0.00  0.00  0.00     0
 20 APR    5 End Juven.      44   0.08   0.2    1  3.4  0.00  0.00  0.00  0.00     0
 23 APR    8 Unifoliate      49   0.09   1.1    2  3.3  0.00  0.64  0.00  0.00     0
 25 APR   10 Flower Ind      56   0.10   1.7    2  3.2  0.00  0.41  0.00  0.00     0
 10 MAY   25 First Flwr     512   1.37   6.2   16  3.1  0.00  0.01  0.00  0.00     1
 13 MAY   28 First Pod      727   1.81   7.1   23  3.1  0.00  0.00  0.00  0.00     3
 20 MAY   35 First Seed    1421   2.23   9.1   44  3.1  0.00  0.00  0.00  0.00     5
 22 MAY   37 End Msnode    1655   2.26   9.8   50  3.0  0.00  0.00  0.00  0.00     5
 26 MAY   41 End Pod       2118   2.14   9.8   64  3.0  0.00  0.00  0.00  0.00     5
 29 MAY   44 End Leaf      2442   1.97   9.8   72  3.0  0.00  0.00  0.00  0.00     5
  1 JUN   47 Phys. Mat     2751   1.78   9.8   80  2.9  0.00  0.00  0.00  0.00     7
 10 JUN   56 Harv. Mat     2540   0.12   9.8   73  2.9  0.00  0.00  0.00  0.00     8
 10 JUN   56 Harvest       2540   0.12   9.8   73  2.9  0.00  0.00  0.00  0.00     8


*MAIN GROWTH AND DEVELOPMENT VARIABLES

@     VARIABLE                                         SIMULATED     MEASURED
      --------                                         ---------     --------
      Anthesis day (dap)                                      25          -99
      First pod day (dap)                                     28          -99
      First seed day (dap)                                    35          -99
      Physiological maturity day (dap)                        47          -99
      Yield at harvest maturity (kg [dm]/ha)                1403          -99
      Pod/Ear/Panicle weight at maturity (kg [dm]/ha)       2049          -99
      Number at maturity (no/m2)                             418          -99
      Unit wt at maturity (g [dm]/unit)                   0.3356          -99
      Number at maturity (no/unit)                          3.50          -99
      Tops weight at maturity (kg [dm]/ha)                  2540          -99
      By-product produced (stalk) at maturity (kg[dm]/ha    1140          -99
      Leaf area index, maximum                              2.26          -99
      Harvest index at maturity                            0.552          -99
      Threshing % at maturity                              68.46          -99
      Grain N at maturity (kg/ha)                             53          -99
      Tops N at maturity (kg/ha)                              73          -99
      Stem N at maturity (kg/ha)                               6          -99
      Grain N at maturity (%)                               3.77          -99
      Tops weight at anthesis (kg [dm]/ha)                   512          -99
      Tops N at anthesis (kg/ha)                              16          -99
      Leaf number per stem at maturity                      9.76          -99
      Grain oil at maturity (%)                             2.87          -99
      Canopy height (m)                                     0.78          -99
      Harvest maturity day (dap)                              56          -99
      Emergence day (dap)                                      5          -99


*ENVIRONMENTAL AND STRESS FACTORS

 |-----Development Phase------|--------------------------------------Environment--------------------------------------|-----------------Stress-----------------|
                              |---------------Average--------------|-----Cumulative-----|--------Count of days--------|          (0=Min, 1=Max Stress)         |
                         Time  Temp  Temp  Temp Solar Photop                Evapo    Pot TMIN TMIN TMAX TMAX TMAX RAIN|----Water----|---Nitrogen--|-Phosphorus-|
                         Span   Max   Min  Mean   Rad  [day]    CO2   Rain  Trans     ET   <    <    >    >    >    >   Photo         Photo         Photo
                         days    øC    øC    øC MJ/m2     hr    ppm     mm     mm     mm  0øC  2øC 30øC 32øC 34øC  0mm  synth Growth  synth Growth  synth Growth
----------------------------------------------------------------------------------------------------------------------------------------------------------------
 Emergence -First Flower   20  29.8  19.4  24.6  18.9  12.13  338.3   36.8    0.0    0.0    0    0   10    1    0    9  0.000  0.000  0.000  0.148  0.000  0.000
 First Flower-First Seed   10  29.6  19.5  24.5  18.1  12.16  338.4   20.5    0.0    0.0    0    0    5    1    0    5  0.000  0.000  0.000  0.000  0.000  0.000
 First Seed - Phys. Mat.   12  29.5  19.8  24.7  17.6  12.18  338.5   34.2    0.0    0.0    0    0    5    0    0    5  0.000  0.000  0.000  0.000  0.000  0.000
 Emergence  - Phys. Mat.   42  29.7  19.5  24.6  18.3  12.15  338.4   91.5    0.0    0.0    0    0   20    2    0   19  0.000  0.000  0.000  0.070  0.000  0.000


 Planting to Harvest       70  29.7  19.4  24.5  18.6  12.13  338.4  194.0    0.0    0.0    0    0   35    2    0   27  0.000  0.000  0.000  0.042  0.000  0.000
----------------------------------------------------------------------------------------------------------------------------------------------------------------

--------------------------------------------------------------------------------------------------------------

                  Dry bean YIELD :     1403 kg/ha    [Dry weight] 

**************************************************************************************************************

*DSSAT Cropping System Model Ver. 4.6.1.000 -release      JUL 11, 2017; 16:24:44
                                                                                
*RUN   2        : SIM                       CRGRO046 2\000002    1              
 MODEL          : CRGRO046 - Dry bean                                           
 EXPERIMENT     : 2\000002 BN PALMIRA_ANALISIS SENSIBILIDAD                     
 DATA PATH      : D:\B\0\00000                                                  
 TREATMENT  1   : SIM                       CRGRO046                            
                                                                                
                                                                                
 CROP           : Dry bean         CULTIVAR : Jatu Rong        ECOTYPE :ANDIND  
 STARTING DATE  : APR  2 1981                                                   
 PLANTING DATE  : APR 16 1981        PLANTS/m2 : 26.6     ROW SPACING :  60.cm  
 WEATHER        : PALM8034                                                      
 SOIL           : CCPA000030     TEXTURE : C     -   Silty Clay Loam            
 WATER BALANCE  : NOT SIMULATED ; NO H2O-STRESS                                 
 IRRIGATION     :                                                               
 NITROGEN BAL.  : NOT SIMULATED ; NO N-STRESS                                   
 N-FERTILIZER   :                                                               
 RESIDUE/MANURE :                                                               
 ENVIRONM. OPT. : DAYL=    0.00  SRAD=    0.00  TMAX=    0.00  TMIN=    0.00    
                  RAIN=    0.00  CO2 =    0.00  DEW =    0.00  WIND=    0.00    
 SIMULATION OPT : WATER   :N  NITROGEN:N  N-FIX:N  PHOSPH :N  PESTS  :N         
                  PHOTO   :L  ET      :R  INFIL:S  HYDROL :R  SOM    :G         
                  CO2 340ppm  NSWIT   :1  EVAP :S  SOIL   :2  STEMP  :D         
 MANAGEMENT OPT : PLANTING:A  IRRIG   :A  FERT :D  RESIDUE:N  HARVEST:M         
                  WEATHER :M  TILLAGE :N                                        
                                                                                
*SUMMARY OF SOIL AND GENETIC INPUT PARAMETERS                                   
                                                                                
 Dry bean   CULTIVAR :000002-Jatu Rong          ECOTYPE :ANDIND                 
 CSDVAR :12.17  PPSEN  : 0.05  EMG-FLW:19.00  FLW-FSD: 9.00  FSD-PHM : 11.00    
 WTPSD  :0.600  SDPDVR : 3.50  SDFDUR :15.00  PODDUR :10.00  XFRUIT  :  1.00    
 THRESH : 78.0  SDPRO  :0.235  SDLIP   : 0.030                                  


*SIMULATED CROP AND SOIL STATUS AT MAIN DEVELOPMENT STAGES

 RUN NO.     2     SIM                     

        CROP GROWTH     BIOMASS         LEAF   CROP N     STRESS      STRESS                                           
   DATE  AGE STAGE        kg/ha    LAI   NUM  kg/ha  %   H2O  Nitr Phos1 Phos2  RSTG                                   
 ------  --- ----------   -----  -----  ----  ---  ---  ----  ----  ----  ----  ----                                   
  2 APR    0 Start Sim        0   0.00   0.0    0  0.0  0.00  0.00  0.00  0.00     0
 16 APR    0 Sowing           0   0.00   0.0    0  0.0  0.00  0.00  0.00  0.00     0
 21 APR    5 Emergence       44   0.08   0.2    1  3.4  0.00  0.00  0.00  0.00     0
 21 APR    5 End Juven.      44   0.08   0.2    1  3.4  0.00  0.00  0.00  0.00     0
 24 APR    8 Unifoliate      48   0.09   1.1    2  3.3  0.00  0.66  0.00  0.00     0
 26 APR   10 Flower Ind      54   0.10   1.7    2  3.2  0.00  0.47  0.00  0.00     0
 12 MAY   26 First Flwr     520   1.40   6.2   16  3.0  0.00  0.02  0.00  0.00     1
 14 MAY   28 First Pod      669   1.71   6.8   21  3.1  0.00  0.00  0.00  0.00     3
 21 MAY   35 First Seed    1320   2.20   8.8   41  3.1  0.00  0.00  0.00  0.00     5
 24 MAY   38 End Msnode    1673   2.24   9.7   51  3.0  0.00  0.00  0.00  0.00     5
 28 MAY   42 End Pod       2125   2.13   9.7   63  3.0  0.00  0.00  0.00  0.00     5
 31 MAY   45 End Leaf      2446   1.96   9.7   71  2.9  0.00  0.00  0.00  0.00     5
  3 JUN   48 Phys. Mat     2756   1.78   9.7   79  2.9  0.00  0.00  0.00  0.00     7
 12 JUN   57 Harv. Mat     2532   0.12   9.7   71  2.8  0.00  0.00  0.00  0.00     8
 12 JUN   57 Harvest       2532   0.12   9.7   71  2.8  0.00  0.00  0.00  0.00     8


*MAIN GROWTH AND DEVELOPMENT VARIABLES

@     VARIABLE                                         SIMULATED     MEASURED
      --------                                         ---------     --------
      Anthesis day (dap)                                      26          -99
      First pod day (dap)                                     28          -99
      First seed day (dap)                                    35          -99
      Physiological maturity day (dap)                        48          -99
      Yield at harvest maturity (kg [dm]/ha)                1314          -99
      Pod/Ear/Panicle weight at maturity (kg [dm]/ha)       2023          -99
      Number at maturity (no/m2)                             448          -99
      Unit wt at maturity (g [dm]/unit)                   0.2935          -99
      Number at maturity (no/unit)                          3.50          -99
      Tops weight at maturity (kg [dm]/ha)                  2532          -99
      By-product produced (stalk) at maturity (kg[dm]/ha    1220          -99
      Leaf area index, maximum                              2.24          -99
      Harvest index at maturity                            0.519          -99
      Threshing % at maturity                              64.95          -99
      Grain N at maturity (kg/ha)                             49          -99
      Tops N at maturity (kg/ha)                              71          -99
      Stem N at maturity (kg/ha)                               6          -99
      Grain N at maturity (%)                               3.76          -99
      Tops weight at anthesis (kg [dm]/ha)                   520          -99
      Tops N at anthesis (kg/ha)                              16          -99
      Leaf number per stem at maturity                      9.71          -99
      Grain oil at maturity (%)                             2.90          -99
      Canopy height (m)                                     0.76          -99
      Harvest maturity day (dap)                              57          -99
      Emergence day (dap)                                      5          -99


*ENVIRONMENTAL AND STRESS FACTORS

 |-----Development Phase------|--------------------------------------Environment--------------------------------------|-----------------Stress-----------------|
                              |---------------Average--------------|-----Cumulative-----|--------Count of days--------|          (0=Min, 1=Max Stress)         |
                         Time  Temp  Temp  Temp Solar Photop                Evapo    Pot TMIN TMIN TMAX TMAX TMAX RAIN|----Water----|---Nitrogen--|-Phosphorus-|
                         Span   Max   Min  Mean   Rad  [day]    CO2   Rain  Trans     ET   <    <    >    >    >    >   Photo         Photo         Photo
                         days    øC    øC    øC MJ/m2     hr    ppm     mm     mm     mm  0øC  2øC 30øC 32øC 34øC  0mm  synth Growth  synth Growth  synth Growth
----------------------------------------------------------------------------------------------------------------------------------------------------------------
 Emergence -First Flower   21  28.0  18.9  23.4  17.5  12.13  339.7   92.9    0.0    0.0    0    0    0    0    0   14  0.000  0.000  0.000  0.152  0.000  0.000
 First Flower-First Seed    9  29.3  19.3  24.3  18.1  12.16  339.8   20.1    0.0    0.0    0    0    4    0    0    5  0.000  0.000  0.000  0.000  0.000  0.000
 First Seed - Phys. Mat.   13  28.5  19.1  23.8  17.3  12.18  339.8   98.0    0.0    0.0    0    0    2    0    0    9  0.000  0.000  0.000  0.000  0.000  0.000
 Emergence  - Phys. Mat.   43  28.4  19.0  23.7  17.6  12.15  339.8  211.0    0.0    0.0    0    0    6    0    0   28  0.000  0.000  0.000  0.074  0.000  0.000


 Planting to Harvest       71  28.5  19.2  23.9  17.7  12.13  339.7  398.5    0.0    0.0    0    0   14    0    0   44  0.000  0.000  0.000  0.045  0.000  0.000
----------------------------------------------------------------------------------------------------------------------------------------------------------------

--------------------------------------------------------------------------------------------------------------

                  Dry bean YIELD :     1314 kg/ha    [Dry weight] 

**************************************************************************************************************

*DSSAT Cropping System Model Ver. 4.6.1.000 -release      JUL 11, 2017; 16:24:44
                                                                                
*RUN   3        : SIM                       CRGRO046 2\000002    1              
 MODEL          : CRGRO046 - Dry bean                                           
 EXPERIMENT     : 2\000002 BN PALMIRA_ANALISIS SENSIBILIDAD                     
 DATA PATH      : D:\B\0\00000                                                  
 TREATMENT  1   : SIM                       CRGRO046                            
                                                                                
                                                                                
 CROP           : Dry bean         CULTIVAR : Jatu Rong        ECOTYPE :ANDIND  
 STARTING DATE  : APR  2 1982                                                   
 PLANTING DATE  : APR 16 1982        PLANTS/m2 : 26.6     ROW SPACING :  60.cm  
 WEATHER        : PALM8034                                                      
 SOIL           : CCPA000030     TEXTURE : C     -   Silty Clay Loam            
 WATER BALANCE  : NOT SIMULATED ; NO H2O-STRESS                                 
 IRRIGATION     :                                                               
 NITROGEN BAL.  : NOT SIMULATED ; NO N-STRESS                                   
 N-FERTILIZER   :                                                               
 RESIDUE/MANURE :                                                               
 ENVIRONM. OPT. : DAYL=    0.00  SRAD=    0.00  TMAX=    0.00  TMIN=    0.00    
                  RAIN=    0.00  CO2 =    0.00  DEW =    0.00  WIND=    0.00    
 SIMULATION OPT : WATER   :N  NITROGEN:N  N-FIX:N  PHOSPH :N  PESTS  :N         
                  PHOTO   :L  ET      :R  INFIL:S  HYDROL :R  SOM    :G         
                  CO2 341ppm  NSWIT   :1  EVAP :S  SOIL   :2  STEMP  :D         
 MANAGEMENT OPT : PLANTING:A  IRRIG   :A  FERT :D  RESIDUE:N  HARVEST:M         
                  WEATHER :M  TILLAGE :N                                        
                                                                                
*SUMMARY OF SOIL AND GENETIC INPUT PARAMETERS                                   
                                                                                
 Dry bean   CULTIVAR :000002-Jatu Rong          ECOTYPE :ANDIND                 
 CSDVAR :12.17  PPSEN  : 0.05  EMG-FLW:19.00  FLW-FSD: 9.00  FSD-PHM : 11.00    
 WTPSD  :0.600  SDPDVR : 3.50  SDFDUR :15.00  PODDUR :10.00  XFRUIT  :  1.00    
 THRESH : 78.0  SDPRO  :0.235  SDLIP   : 0.030                                  


*SIMULATED CROP AND SOIL STATUS AT MAIN DEVELOPMENT STAGES

 RUN NO.     3     SIM                     

        CROP GROWTH     BIOMASS         LEAF   CROP N     STRESS      STRESS                                           
   DATE  AGE STAGE        kg/ha    LAI   NUM  kg/ha  %   H2O  Nitr Phos1 Phos2  RSTG                                   
 ------  --- ----------   -----  -----  ----  ---  ---  ----  ----  ----  ----  ----                                   
  2 APR    0 Start Sim        0   0.00   0.0    0  0.0  0.00  0.00  0.00  0.00     0
 16 APR    0 Sowing           0   0.00   0.0    0  0.0  0.00  0.00  0.00  0.00     0
 21 APR    5 Emergence       44   0.08   0.2    1  3.4  0.00  0.00  0.00  0.00     0
 21 APR    5 End Juven.      44   0.08   0.2    1  3.4  0.00  0.00  0.00  0.00     0
 24 APR    8 Unifoliate      49   0.09   1.1    2  3.3  0.00  0.65  0.00  0.00     0
 26 APR   10 Flower Ind      55   0.10   1.7    2  3.2  0.00  0.44  0.00  0.00     0
 11 MAY   25 First Flwr     485   1.32   6.1   15  3.0  0.00  0.01  0.00  0.00     1
 14 MAY   28 First Pod      707   1.78   7.0   22  3.1  0.00  0.00  0.00  0.00     3
 21 MAY   35 First Seed    1369   2.19   9.1   42  3.1  0.00  0.00  0.00  0.00     5
 23 MAY   37 End Msnode    1599   2.22   9.6   49  3.0  0.00  0.00  0.00  0.00     5
 28 MAY   42 End Pod       2142   2.07   9.6   64  3.0  0.00  0.00  0.00  0.00     5
 31 MAY   45 End Leaf      2464   1.91   9.6   72  2.9  0.00  0.00  0.00  0.00     5
  2 JUN   47 Phys. Mat     2673   1.78   9.6   77  2.9  0.00  0.00  0.00  0.00     7
 11 JUN   56 Harv. Mat     2468   0.12   9.6   70  2.8  0.00  0.00  0.00  0.00     8
 11 JUN   56 Harvest       2468   0.12   9.6   70  2.8  0.00  0.00  0.00  0.00     8


*MAIN GROWTH AND DEVELOPMENT VARIABLES

@     VARIABLE                                         SIMULATED     MEASURED
      --------                                         ---------     --------
      Anthesis day (dap)                                      25          -99
      First pod day (dap)                                     28          -99
      First seed day (dap)                                    35          -99
      Physiological maturity day (dap)                        47          -99
      Yield at harvest maturity (kg [dm]/ha)                1289          -99
      Pod/Ear/Panicle weight at maturity (kg [dm]/ha)       2000          -99
      Number at maturity (no/m2)                             444          -99
      Unit wt at maturity (g [dm]/unit)                   0.2901          -99
      Number at maturity (no/unit)                          3.50          -99
      Tops weight at maturity (kg [dm]/ha)                  2468          -99
      By-product produced (stalk) at maturity (kg[dm]/ha    1180          -99
      Leaf area index, maximum                              2.22          -99
      Harvest index at maturity                            0.522          -99
      Threshing % at maturity                              64.47          -99
      Grain N at maturity (kg/ha)                             49          -99
      Tops N at maturity (kg/ha)                              70          -99
      Stem N at maturity (kg/ha)                               5          -99
      Grain N at maturity (%)                               3.77          -99
      Tops weight at anthesis (kg [dm]/ha)                   485          -99
      Tops N at anthesis (kg/ha)                              15          -99
      Leaf number per stem at maturity                      9.62          -99
      Grain oil at maturity (%)                             2.91          -99
      Canopy height (m)                                     0.79          -99
      Harvest maturity day (dap)                              56          -99
      Emergence day (dap)                                      5          -99


*ENVIRONMENTAL AND STRESS FACTORS

 |-----Development Phase------|--------------------------------------Environment--------------------------------------|-----------------Stress-----------------|
                              |---------------Average--------------|-----Cumulative-----|--------Count of days--------|          (0=Min, 1=Max Stress)         |
                         Time  Temp  Temp  Temp Solar Photop                Evapo    Pot TMIN TMIN TMAX TMAX TMAX RAIN|----Water----|---Nitrogen--|-Phosphorus-|
                         Span   Max   Min  Mean   Rad  [day]    CO2   Rain  Trans     ET   <    <    >    >    >    >   Photo         Photo         Photo
                         days    øC    øC    øC MJ/m2     hr    ppm     mm     mm     mm  0øC  2øC 30øC 32øC 34øC  0mm  synth Growth  synth Growth  synth Growth
----------------------------------------------------------------------------------------------------------------------------------------------------------------
 Emergence -First Flower   20  29.2  19.3  24.3  18.4  12.13  340.9   57.5    0.0    0.0    0    0    7    1    0    8  0.000  0.000  0.000  0.151  0.000  0.000
 First Flower-First Seed   10  29.2  19.5  24.3  17.8  12.16  340.9   32.4    0.0    0.0    0    0    4    1    0    4  0.000  0.000  0.000  0.000  0.000  0.000
 First Seed - Phys. Mat.   12  28.2  19.2  23.7  16.9  12.18  341.0   32.3    0.0    0.0    0    0    2    0    0    4  0.000  0.000  0.000  0.000  0.000  0.000
 Emergence  - Phys. Mat.   42  28.9  19.3  24.1  17.8  12.15  340.9  122.2    0.0    0.0    0    0   13    2    0   16  0.000  0.000  0.000  0.072  0.000  0.000


 Planting to Harvest       70  29.0  19.3  24.2  18.0  12.13  340.9  258.0    0.0    0.0    0    0   20    2    0   28  0.000  0.000  0.000  0.043  0.000  0.000
----------------------------------------------------------------------------------------------------------------------------------------------------------------

--------------------------------------------------------------------------------------------------------------

                  Dry bean YIELD :     1289 kg/ha    [Dry weight] 

**************************************************************************************************************

*DSSAT Cropping System Model Ver. 4.6.1.000 -release      JUL 11, 2017; 16:24:44
                                                                                
*RUN   4        : SIM                       CRGRO046 2\000002    1              
 MODEL          : CRGRO046 - Dry bean                                           
 EXPERIMENT     : 2\000002 BN PALMIRA_ANALISIS SENSIBILIDAD                     
 DATA PATH      : D:\B\0\00000                                                  
 TREATMENT  1   : SIM                       CRGRO046                            
                                                                                
                                                                                
 CROP           : Dry bean         CULTIVAR : Jatu Rong        ECOTYPE :ANDIND  
 STARTING DATE  : APR  2 1983                                                   
 PLANTING DATE  : APR 16 1983        PLANTS/m2 : 26.6     ROW SPACING :  60.cm  
 WEATHER        : PALM8034                                                      
 SOIL           : CCPA000030     TEXTURE : C     -   Silty Clay Loam            
 WATER BALANCE  : NOT SIMULATED ; NO H2O-STRESS                                 
 IRRIGATION     :                                                               
 NITROGEN BAL.  : NOT SIMULATED ; NO N-STRESS                                   
 N-FERTILIZER   :                                                               
 RESIDUE/MANURE :                                                               
 ENVIRONM. OPT. : DAYL=    0.00  SRAD=    0.00  TMAX=    0.00  TMIN=    0.00    
                  RAIN=    0.00  CO2 =    0.00  DEW =    0.00  WIND=    0.00    
 SIMULATION OPT : WATER   :N  NITROGEN:N  N-FIX:N  PHOSPH :N  PESTS  :N         
                  PHOTO   :L  ET      :R  INFIL:S  HYDROL :R  SOM    :G         
                  CO2 342ppm  NSWIT   :1  EVAP :S  SOIL   :2  STEMP  :D         
 MANAGEMENT OPT : PLANTING:A  IRRIG   :A  FERT :D  RESIDUE:N  HARVEST:M         
                  WEATHER :M  TILLAGE :N                                        
                                                                                
*SUMMARY OF SOIL AND GENETIC INPUT PARAMETERS                                   
                                                                                
 Dry bean   CULTIVAR :000002-Jatu Rong          ECOTYPE :ANDIND                 
 CSDVAR :12.17  PPSEN  : 0.05  EMG-FLW:19.00  FLW-FSD: 9.00  FSD-PHM : 11.00    
 WTPSD  :0.600  SDPDVR : 3.50  SDFDUR :15.00  PODDUR :10.00  XFRUIT  :  1.00    
 THRESH : 78.0  SDPRO  :0.235  SDLIP   : 0.030                                  


*SIMULATED CROP AND SOIL STATUS AT MAIN DEVELOPMENT STAGES

 RUN NO.     4     SIM                     

        CROP GROWTH     BIOMASS         LEAF   CROP N     STRESS      STRESS                                           
   DATE  AGE STAGE        kg/ha    LAI   NUM  kg/ha  %   H2O  Nitr Phos1 Phos2  RSTG                                   
 ------  --- ----------   -----  -----  ----  ---  ---  ----  ----  ----  ----  ----                                   
  2 APR    0 Start Sim        0   0.00   0.0    0  0.0  0.00  0.00  0.00  0.00     0
 16 APR    0 Sowing           0   0.00   0.0    0  0.0  0.00  0.00  0.00  0.00     0
 21 APR    5 Emergence       44   0.08   0.2    1  3.4  0.00  0.00  0.00  0.00     0
 21 APR    5 End Juven.      44   0.08   0.2    1  3.4  0.00  0.00  0.00  0.00     0
 24 APR    8 Unifoliate      48   0.09   1.1    2  3.3  0.00  0.66  0.00  0.00     0
 26 APR   10 Flower Ind      55   0.10   1.7    2  3.2  0.00  0.43  0.00  0.00     0
 11 MAY   25 First Flwr     508   1.40   6.2   15  3.0  0.00  0.01  0.00  0.00     1
 14 MAY   28 First Pod      736   1.82   7.1   23  3.1  0.00  0.00  0.00  0.00     3
 21 MAY   35 First Seed    1432   2.23   9.2   44  3.1  0.00  0.00  0.00  0.00     5
 23 MAY   37 End Msnode    1678   2.25   9.8   51  3.0  0.00  0.00  0.00  0.00     5
 27 MAY   41 End Pod       2145   2.14   9.8   64  3.0  0.00  0.00  0.00  0.00     5
 30 MAY   44 End Leaf      2468   1.97   9.8   72  2.9  0.00  0.00  0.00  0.00     5
  2 JUN   47 Phys. Mat     2788   1.78   9.8   80  2.9  0.00  0.00  0.00  0.00     7
 11 JUN   56 Harv. Mat     2561   0.12   9.8   72  2.8  0.00  0.00  0.00  0.00     8
 11 JUN   56 Harvest       2561   0.12   9.8   72  2.8  0.00  0.00  0.00  0.00     8


*MAIN GROWTH AND DEVELOPMENT VARIABLES

@     VARIABLE                                         SIMULATED     MEASURED
      --------                                         ---------     --------
      Anthesis day (dap)                                      25          -99
      First pod day (dap)                                     28          -99
      First seed day (dap)                                    35          -99
      Physiological maturity day (dap)                        47          -99
      Yield at harvest maturity (kg [dm]/ha)                1353          -99
      Pod/Ear/Panicle weight at maturity (kg [dm]/ha)       2053          -99
      Number at maturity (no/m2)                             446          -99
      Unit wt at maturity (g [dm]/unit)                   0.3031          -99
      Number at maturity (no/unit)                          3.50          -99
      Tops weight at maturity (kg [dm]/ha)                  2561          -99
      By-product produced (stalk) at maturity (kg[dm]/ha    1210          -99
      Leaf area index, maximum                              2.25          -99
      Harvest index at maturity                            0.528          -99
      Threshing % at maturity                              65.91          -99
      Grain N at maturity (kg/ha)                             51          -99
      Tops N at maturity (kg/ha)                              72          -99
      Stem N at maturity (kg/ha)                               6          -99
      Grain N at maturity (%)                               3.77          -99
      Tops weight at anthesis (kg [dm]/ha)                   508          -99
      Tops N at anthesis (kg/ha)                              15          -99
      Leaf number per stem at maturity                      9.79          -99
      Grain oil at maturity (%)                             2.91          -99
      Canopy height (m)                                     0.79          -99
      Harvest maturity day (dap)                              56          -99
      Emergence day (dap)                                      5          -99


*ENVIRONMENTAL AND STRESS FACTORS

 |-----Development Phase------|--------------------------------------Environment--------------------------------------|-----------------Stress-----------------|
                              |---------------Average--------------|-----Cumulative-----|--------Count of days--------|          (0=Min, 1=Max Stress)         |
                         Time  Temp  Temp  Temp Solar Photop                Evapo    Pot TMIN TMIN TMAX TMAX TMAX RAIN|----Water----|---Nitrogen--|-Phosphorus-|
                         Span   Max   Min  Mean   Rad  [day]    CO2   Rain  Trans     ET   <    <    >    >    >    >   Photo         Photo         Photo
                         days    øC    øC    øC MJ/m2     hr    ppm     mm     mm     mm  0øC  2øC 30øC 32øC 34øC  0mm  synth Growth  synth Growth  synth Growth
----------------------------------------------------------------------------------------------------------------------------------------------------------------
 Emergence -First Flower   20  29.7  19.9  24.8  18.3  12.13  342.3   40.2    0.0    0.0    0    0    9    0    0    7  0.000  0.000  0.000  0.152  0.000  0.000
 First Flower-First Seed   10  29.6  19.4  24.5  18.3  12.16  342.4   65.4    0.0    0.0    0    0    4    0    0    7  0.000  0.000  0.000  0.000  0.000  0.000
 First Seed - Phys. Mat.   12  29.9  19.5  24.7  18.3  12.18  342.5    8.2    0.0    0.0    0    0    6    0    0    2  0.000  0.000  0.000  0.000  0.000  0.000
 Emergence  - Phys. Mat.   42  29.7  19.7  24.7  18.3  12.15  342.4  113.8    0.0    0.0    0    0   19    0    0   16  0.000  0.000  0.000  0.073  0.000  0.000


 Planting to Harvest       70  29.5  19.6  24.5  18.2  12.13  342.3  224.3    0.0    0.0    0    0   26    0    0   33  0.000  0.000  0.000  0.044  0.000  0.000
----------------------------------------------------------------------------------------------------------------------------------------------------------------

--------------------------------------------------------------------------------------------------------------

                  Dry bean YIELD :     1353 kg/ha    [Dry weight] 

**************************************************************************************************************

*DSSAT Cropping System Model Ver. 4.6.1.000 -release      JUL 11, 2017; 16:24:44
                                                                                
*RUN   5        : SIM                       CRGRO046 2\000002    1              
 MODEL          : CRGRO046 - Dry bean                                           
 EXPERIMENT     : 2\000002 BN PALMIRA_ANALISIS SENSIBILIDAD                     
 DATA PATH      : D:\B\0\00000                                                  
 TREATMENT  1   : SIM                       CRGRO046                            
                                                                                
                                                                                
 CROP           : Dry bean         CULTIVAR : Jatu Rong        ECOTYPE :ANDIND  
 STARTING DATE  : APR  1 1984                                                   
 PLANTING DATE  : APR 15 1984        PLANTS/m2 : 26.6     ROW SPACING :  60.cm  
 WEATHER        : PALM8034                                                      
 SOIL           : CCPA000030     TEXTURE : C     -   Silty Clay Loam            
 WATER BALANCE  : NOT SIMULATED ; NO H2O-STRESS                                 
 IRRIGATION     :                                                               
 NITROGEN BAL.  : NOT SIMULATED ; NO N-STRESS                                   
 N-FERTILIZER   :                                                               
 RESIDUE/MANURE :                                                               
 ENVIRONM. OPT. : DAYL=    0.00  SRAD=    0.00  TMAX=    0.00  TMIN=    0.00    
                  RAIN=    0.00  CO2 =    0.00  DEW =    0.00  WIND=    0.00    
 SIMULATION OPT : WATER   :N  NITROGEN:N  N-FIX:N  PHOSPH :N  PESTS  :N         
                  PHOTO   :L  ET      :R  INFIL:S  HYDROL :R  SOM    :G         
                  CO2 344ppm  NSWIT   :1  EVAP :S  SOIL   :2  STEMP  :D         
 MANAGEMENT OPT : PLANTING:A  IRRIG   :A  FERT :D  RESIDUE:N  HARVEST:M         
                  WEATHER :M  TILLAGE :N                                        
                                                                                
*SUMMARY OF SOIL AND GENETIC INPUT PARAMETERS                                   
                                                                                
 Dry bean   CULTIVAR :000002-Jatu Rong          ECOTYPE :ANDIND                 
 CSDVAR :12.17  PPSEN  : 0.05  EMG-FLW:19.00  FLW-FSD: 9.00  FSD-PHM : 11.00    
 WTPSD  :0.600  SDPDVR : 3.50  SDFDUR :15.00  PODDUR :10.00  XFRUIT  :  1.00    
 THRESH : 78.0  SDPRO  :0.235  SDLIP   : 0.030                                  


*SIMULATED CROP AND SOIL STATUS AT MAIN DEVELOPMENT STAGES

 RUN NO.     5     SIM                     

        CROP GROWTH     BIOMASS         LEAF   CROP N     STRESS      STRESS                                           
   DATE  AGE STAGE        kg/ha    LAI   NUM  kg/ha  %   H2O  Nitr Phos1 Phos2  RSTG                                   
 ------  --- ----------   -----  -----  ----  ---  ---  ----  ----  ----  ----  ----                                   
  1 APR    0 Start Sim        0   0.00   0.0    0  0.0  0.00  0.00  0.00  0.00     0
 15 APR    0 Sowing           0   0.00   0.0    0  0.0  0.00  0.00  0.00  0.00     0
 20 APR    5 Emergence       44   0.08   0.2    1  3.4  0.00  0.00  0.00  0.00     0
 20 APR    5 End Juven.      44   0.08   0.2    1  3.4  0.00  0.00  0.00  0.00     0
 23 APR    8 Unifoliate      49   0.09   1.1    2  3.3  0.00  0.64  0.00  0.00     0
 25 APR   10 Flower Ind      55   0.10   1.7    2  3.2  0.00  0.45  0.00  0.00     0
 10 MAY   25 First Flwr     480   1.28   6.0   15  3.0  0.00  0.01  0.00  0.00     1
 13 MAY   28 First Pod      702   1.75   6.9   22  3.1  0.00  0.00  0.00  0.00     3
 20 MAY   35 First Seed    1376   2.20   8.9   43  3.1  0.00  0.00  0.00  0.00     5
 23 MAY   38 End Msnode    1720   2.23   9.7   52  3.0  0.00  0.00  0.00  0.00     5
 27 MAY   42 End Pod       2152   2.10   9.7   65  3.0  0.00  0.00  0.00  0.00     5
 30 MAY   45 End Leaf      2484   1.94   9.7   74  3.0  0.00  0.00  0.00  0.00     5
  2 JUN   48 Phys. Mat     2797   1.76   9.7   81  2.9  0.00  0.00  0.00  0.00     7
 11 JUN   57 Harv. Mat     2600   0.12   9.7   75  2.9  0.00  0.00  0.00  0.00     8
 11 JUN   57 Harvest       2600   0.12   9.7   75  2.9  0.00  0.00  0.00  0.00     8


*MAIN GROWTH AND DEVELOPMENT VARIABLES

@     VARIABLE                                         SIMULATED     MEASURED
      --------                                         ---------     --------
      Anthesis day (dap)                                      25          -99
      First pod day (dap)                                     28          -99
      First seed day (dap)                                    35          -99
      Physiological maturity day (dap)                        48          -99
      Yield at harvest maturity (kg [dm]/ha)                1435          -99
      Pod/Ear/Panicle weight at maturity (kg [dm]/ha)       2140          -99
      Number at maturity (no/m2)                             449          -99
      Unit wt at maturity (g [dm]/unit)                   0.3198          -99
      Number at maturity (no/unit)                          3.50          -99
      Tops weight at maturity (kg [dm]/ha)                  2600          -99
      By-product produced (stalk) at maturity (kg[dm]/ha    1170          -99
      Leaf area index, maximum                              2.23          -99
      Harvest index at maturity                            0.552          -99
      Threshing % at maturity                              67.03          -99
      Grain N at maturity (kg/ha)                             54          -99
      Tops N at maturity (kg/ha)                              75          -99
      Stem N at maturity (kg/ha)                               5          -99
      Grain N at maturity (%)                               3.75          -99
      Tops weight at anthesis (kg [dm]/ha)                   480          -99
      Tops N at anthesis (kg/ha)                              15          -99
      Leaf number per stem at maturity                      9.75          -99
      Grain oil at maturity (%)                             2.89          -99
      Canopy height (m)                                     0.80          -99
      Harvest maturity day (dap)                              57          -99
      Emergence day (dap)                                      5          -99


*ENVIRONMENTAL AND STRESS FACTORS

 |-----Development Phase------|--------------------------------------Environment--------------------------------------|-----------------Stress-----------------|
                              |---------------Average--------------|-----Cumulative-----|--------Count of days--------|          (0=Min, 1=Max Stress)         |
                         Time  Temp  Temp  Temp Solar Photop                Evapo    Pot TMIN TMIN TMAX TMAX TMAX RAIN|----Water----|---Nitrogen--|-Phosphorus-|
                         Span   Max   Min  Mean   Rad  [day]    CO2   Rain  Trans     ET   <    <    >    >    >    >   Photo         Photo         Photo
                         days    øC    øC    øC MJ/m2     hr    ppm     mm     mm     mm  0øC  2øC 30øC 32øC 34øC  0mm  synth Growth  synth Growth  synth Growth
----------------------------------------------------------------------------------------------------------------------------------------------------------------
 Emergence -First Flower   20  28.4  18.8  23.6  18.1  12.13  344.1   64.5    0.0    0.0    0    0    2    0    0   11  0.000  0.000  0.000  0.150  0.000  0.000
 First Flower-First Seed   10  28.7  18.7  23.7  18.2  12.16  344.2   11.6    0.0    0.0    0    0    1    0    0    5  0.000  0.000  0.000  0.000  0.000  0.000
 First Seed - Phys. Mat.   13  27.9  18.9  23.4  16.9  12.18  344.3   48.0    0.0    0.0    0    0    3    0    0    8  0.000  0.000  0.000  0.000  0.000  0.000
 Emergence  - Phys. Mat.   43  28.3  18.8  23.6  17.7  12.15  344.2  124.1    0.0    0.0    0    0    6    0    0   24  0.000  0.000  0.000  0.070  0.000  0.000


 Planting to Harvest       71  28.5  18.9  23.7  18.0  12.13  344.2  194.7    0.0    0.0    0    0   12    0    0   37  0.000  0.000  0.000  0.042  0.000  0.000
----------------------------------------------------------------------------------------------------------------------------------------------------------------

--------------------------------------------------------------------------------------------------------------

                  Dry bean YIELD :     1435 kg/ha    [Dry weight] 

**************************************************************************************************************

*DSSAT Cropping System Model Ver. 4.6.1.000 -release      JUL 11, 2017; 16:24:44
                                                                                
*RUN   6        : SIM                       CRGRO046 2\000002    1              
 MODEL          : CRGRO046 - Dry bean                                           
 EXPERIMENT     : 2\000002 BN PALMIRA_ANALISIS SENSIBILIDAD                     
 DATA PATH      : D:\B\0\00000                                                  
 TREATMENT  1   : SIM                       CRGRO046                            
                                                                                
                                                                                
 CROP           : Dry bean         CULTIVAR : Jatu Rong        ECOTYPE :ANDIND  
 STARTING DATE  : APR  2 1985                                                   
 PLANTING DATE  : APR 16 1985        PLANTS/m2 : 26.6     ROW SPACING :  60.cm  
 WEATHER        : PALM8034                                                      
 SOIL           : CCPA000030     TEXTURE : C     -   Silty Clay Loam            
 WATER BALANCE  : NOT SIMULATED ; NO H2O-STRESS                                 
 IRRIGATION     :                                                               
 NITROGEN BAL.  : NOT SIMULATED ; NO N-STRESS                                   
 N-FERTILIZER   :                                                               
 RESIDUE/MANURE :                                                               
 ENVIRONM. OPT. : DAYL=    0.00  SRAD=    0.00  TMAX=    0.00  TMIN=    0.00    
                  RAIN=    0.00  CO2 =    0.00  DEW =    0.00  WIND=    0.00    
 SIMULATION OPT : WATER   :N  NITROGEN:N  N-FIX:N  PHOSPH :N  PESTS  :N         
                  PHOTO   :L  ET      :R  INFIL:S  HYDROL :R  SOM    :G         
                  CO2 346ppm  NSWIT   :1  EVAP :S  SOIL   :2  STEMP  :D         
 MANAGEMENT OPT : PLANTING:A  IRRIG   :A  FERT :D  RESIDUE:N  HARVEST:M         
                  WEATHER :M  TILLAGE :N                                        
                                                                                
*SUMMARY OF SOIL AND GENETIC INPUT PARAMETERS                                   
                                                                                
 Dry bean   CULTIVAR :000002-Jatu Rong          ECOTYPE :ANDIND                 
 CSDVAR :12.17  PPSEN  : 0.05  EMG-FLW:19.00  FLW-FSD: 9.00  FSD-PHM : 11.00    
 WTPSD  :0.600  SDPDVR : 3.50  SDFDUR :15.00  PODDUR :10.00  XFRUIT  :  1.00    
 THRESH : 78.0  SDPRO  :0.235  SDLIP   : 0.030                                  


*SIMULATED CROP AND SOIL STATUS AT MAIN DEVELOPMENT STAGES

 RUN NO.     6     SIM                     

        CROP GROWTH     BIOMASS         LEAF   CROP N     STRESS      STRESS                                           
   DATE  AGE STAGE        kg/ha    LAI   NUM  kg/ha  %   H2O  Nitr Phos1 Phos2  RSTG                                   
 ------  --- ----------   -----  -----  ----  ---  ---  ----  ----  ----  ----  ----                                   
  2 APR    0 Start Sim        0   0.00   0.0    0  0.0  0.00  0.00  0.00  0.00     0
 16 APR    0 Sowing           0   0.00   0.0    0  0.0  0.00  0.00  0.00  0.00     0
 21 APR    5 Emergence       44   0.08   0.2    1  3.4  0.00  0.00  0.00  0.00     0
 21 APR    5 End Juven.      44   0.08   0.2    1  3.4  0.00  0.00  0.00  0.00     0
 24 APR    8 Unifoliate      48   0.09   1.1    2  3.3  0.00  0.66  0.00  0.00     0
 26 APR   10 Flower Ind      55   0.10   1.6    2  3.2  0.00  0.43  0.00  0.00     0
 12 MAY   26 First Flwr     561   1.45   6.2   17  3.0  0.00  0.01  0.00  0.00     1
 14 MAY   28 First Pod      715   1.76   6.8   22  3.1  0.00  0.00  0.00  0.00     3
 22 MAY   36 First Seed    1515   2.32   9.2   46  3.1  0.00  0.00  0.00  0.00     5
 24 MAY   38 End Msnode    1769   2.34   9.8   53  3.0  0.00  0.00  0.00  0.00     5
 28 MAY   42 End Pod       2250   2.22   9.8   67  3.0  0.00  0.00  0.00  0.00     5
 31 MAY   45 End Leaf      2576   2.04   9.8   75  2.9  0.00  0.00  0.00  0.00     5
  3 JUN   48 Phys. Mat     2898   1.86   9.8   83  2.9  0.00  0.00  0.00  0.00     7
 12 JUN   57 Harv. Mat     2673   0.13   9.8   76  2.8  0.00  0.00  0.00  0.00     8
 12 JUN   57 Harvest       2673   0.13   9.8   76  2.8  0.00  0.00  0.00  0.00     8


*MAIN GROWTH AND DEVELOPMENT VARIABLES

@     VARIABLE                                         SIMULATED     MEASURED
      --------                                         ---------     --------
      Anthesis day (dap)                                      26          -99
      First pod day (dap)                                     28          -99
      First seed day (dap)                                    36          -99
      Physiological maturity day (dap)                        48          -99
      Yield at harvest maturity (kg [dm]/ha)                1468          -99
      Pod/Ear/Panicle weight at maturity (kg [dm]/ha)       2124          -99
      Number at maturity (no/m2)                             428          -99
      Unit wt at maturity (g [dm]/unit)                   0.3432          -99
      Number at maturity (no/unit)                          3.50          -99
      Tops weight at maturity (kg [dm]/ha)                  2673          -99
      By-product produced (stalk) at maturity (kg[dm]/ha    1200          -99
      Leaf area index, maximum                              2.34          -99
      Harvest index at maturity                            0.549          -99
      Threshing % at maturity                              69.15          -99
      Grain N at maturity (kg/ha)                             55          -99
      Tops N at maturity (kg/ha)                              76          -99
      Stem N at maturity (kg/ha)                               6          -99
      Grain N at maturity (%)                               3.76          -99
      Tops weight at anthesis (kg [dm]/ha)                   561          -99
      Tops N at anthesis (kg/ha)                              17          -99
      Leaf number per stem at maturity                      9.76          -99
      Grain oil at maturity (%)                             2.87          -99
      Canopy height (m)                                     0.77          -99
      Harvest maturity day (dap)                              57          -99
      Emergence day (dap)                                      5          -99


*ENVIRONMENTAL AND STRESS FACTORS

 |-----Development Phase------|--------------------------------------Environment--------------------------------------|-----------------Stress-----------------|
                              |---------------Average--------------|-----Cumulative-----|--------Count of days--------|          (0=Min, 1=Max Stress)         |
                         Time  Temp  Temp  Temp Solar Photop                Evapo    Pot TMIN TMIN TMAX TMAX TMAX RAIN|----Water----|---Nitrogen--|-Phosphorus-|
                         Span   Max   Min  Mean   Rad  [day]    CO2   Rain  Trans     ET   <    <    >    >    >    >   Photo         Photo         Photo
                         days    øC    øC    øC MJ/m2     hr    ppm     mm     mm     mm  0øC  2øC 30øC 32øC 34øC  0mm  synth Growth  synth Growth  synth Growth
----------------------------------------------------------------------------------------------------------------------------------------------------------------
 Emergence -First Flower   21  29.1  18.4  23.8  19.1  12.13  345.6   56.5    0.0    0.0    0    0    5    0    0   10  0.000  0.000  0.000  0.143  0.000  0.000
 First Flower-First Seed   10  28.9  19.1  24.0  18.0  12.17  345.7   28.2    0.0    0.0    0    0    3    0    0    7  0.000  0.000  0.000  0.000  0.000  0.000
 First Seed - Phys. Mat.   12  29.2  19.5  24.4  17.5  12.19  345.7   25.1    0.0    0.0    0    0    3    0    0    4  0.000  0.000  0.000  0.000  0.000  0.000
 Emergence  - Phys. Mat.   43  29.1  18.9  24.0  18.4  12.15  345.7  109.8    0.0    0.0    0    0   11    0    0   21  0.000  0.000  0.000  0.070  0.000  0.000


 Planting to Harvest       71  29.2  18.9  24.0  18.6  12.13  345.7  157.3    0.0    0.0    0    0   20    0    0   30  0.000  0.000  0.000  0.042  0.000  0.000
----------------------------------------------------------------------------------------------------------------------------------------------------------------

--------------------------------------------------------------------------------------------------------------

                  Dry bean YIELD :     1468 kg/ha    [Dry weight] 

**************************************************************************************************************

*DSSAT Cropping System Model Ver. 4.6.1.000 -release      JUL 11, 2017; 16:24:44
                                                                                
*RUN   7        : SIM                       CRGRO046 2\000002    1              
 MODEL          : CRGRO046 - Dry bean                                           
 EXPERIMENT     : 2\000002 BN PALMIRA_ANALISIS SENSIBILIDAD                     
 DATA PATH      : D:\B\0\00000                                                  
 TREATMENT  1   : SIM                       CRGRO046                            
                                                                                
                                                                                
 CROP           : Dry bean         CULTIVAR : Jatu Rong        ECOTYPE :ANDIND  
 STARTING DATE  : APR  2 1986                                                   
 PLANTING DATE  : APR 16 1986        PLANTS/m2 : 26.6     ROW SPACING :  60.cm  
 WEATHER        : PALM8034                                                      
 SOIL           : CCPA000030     TEXTURE : C     -   Silty Clay Loam            
 WATER BALANCE  : NOT SIMULATED ; NO H2O-STRESS                                 
 IRRIGATION     :                                                               
 NITROGEN BAL.  : NOT SIMULATED ; NO N-STRESS                                   
 N-FERTILIZER   :                                                               
 RESIDUE/MANURE :                                                               
 ENVIRONM. OPT. : DAYL=    0.00  SRAD=    0.00  TMAX=    0.00  TMIN=    0.00    
                  RAIN=    0.00  CO2 =    0.00  DEW =    0.00  WIND=    0.00    
 SIMULATION OPT : WATER   :N  NITROGEN:N  N-FIX:N  PHOSPH :N  PESTS  :N         
                  PHOTO   :L  ET      :R  INFIL:S  HYDROL :R  SOM    :G         
                  CO2 347ppm  NSWIT   :1  EVAP :S  SOIL   :2  STEMP  :D         
 MANAGEMENT OPT : PLANTING:A  IRRIG   :A  FERT :D  RESIDUE:N  HARVEST:M         
                  WEATHER :M  TILLAGE :N                                        
                                                                                
*SUMMARY OF SOIL AND GENETIC INPUT PARAMETERS                                   
                                                                                
 Dry bean   CULTIVAR :000002-Jatu Rong          ECOTYPE :ANDIND                 
 CSDVAR :12.17  PPSEN  : 0.05  EMG-FLW:19.00  FLW-FSD: 9.00  FSD-PHM : 11.00    
 WTPSD  :0.600  SDPDVR : 3.50  SDFDUR :15.00  PODDUR :10.00  XFRUIT  :  1.00    
 THRESH : 78.0  SDPRO  :0.235  SDLIP   : 0.030                                  


*SIMULATED CROP AND SOIL STATUS AT MAIN DEVELOPMENT STAGES

 RUN NO.     7     SIM                     

        CROP GROWTH     BIOMASS         LEAF   CROP N     STRESS      STRESS                                           
   DATE  AGE STAGE        kg/ha    LAI   NUM  kg/ha  %   H2O  Nitr Phos1 Phos2  RSTG                                   
 ------  --- ----------   -----  -----  ----  ---  ---  ----  ----  ----  ----  ----                                   
  2 APR    0 Start Sim        0   0.00   0.0    0  0.0  0.00  0.00  0.00  0.00     0
 16 APR    0 Sowing           0   0.00   0.0    0  0.0  0.00  0.00  0.00  0.00     0
 21 APR    5 Emergence       44   0.08   0.2    1  3.4  0.00  0.00  0.00  0.00     0
 21 APR    5 End Juven.      44   0.08   0.2    1  3.4  0.00  0.00  0.00  0.00     0
 24 APR    8 Unifoliate      48   0.09   1.1    2  3.3  0.00  0.66  0.00  0.00     0
 26 APR   10 Flower Ind      55   0.10   1.7    2  3.2  0.00  0.44  0.00  0.00     0
 11 MAY   25 First Flwr     520   1.36   6.2   16  3.1  0.00  0.01  0.00  0.00     1
 14 MAY   28 First Pod      752   1.80   7.1   23  3.1  0.00  0.00  0.00  0.00     3
 21 MAY   35 First Seed    1482   2.25   9.2   45  3.1  0.00  0.00  0.00  0.00     5
 23 MAY   37 End Msnode    1730   2.28   9.8   53  3.0  0.00  0.00  0.00  0.00     5
 27 MAY   41 End Pod       2226   2.18   9.8   66  3.0  0.00  0.00  0.00  0.00     5
 30 MAY   44 End Leaf      2553   2.01   9.8   74  2.9  0.00  0.00  0.00  0.00     5
  2 JUN   47 Phys. Mat     2866   1.82   9.8   81  2.8  0.00  0.00  0.00  0.00     7
 11 JUN   56 Harv. Mat     2609   0.12   9.8   73  2.8  0.00  0.00  0.00  0.00     8
 11 JUN   56 Harvest       2609   0.12   9.8   73  2.8  0.00  0.00  0.00  0.00     8


*MAIN GROWTH AND DEVELOPMENT VARIABLES

@     VARIABLE                                         SIMULATED     MEASURED
      --------                                         ---------     --------
      Anthesis day (dap)                                      25          -99
      First pod day (dap)                                     28          -99
      First seed day (dap)                                    35          -99
      Physiological maturity day (dap)                        47          -99
      Yield at harvest maturity (kg [dm]/ha)                1362          -99
      Pod/Ear/Panicle weight at maturity (kg [dm]/ha)       2039          -99
      Number at maturity (no/m2)                             446          -99
      Unit wt at maturity (g [dm]/unit)                   0.3051          -99
      Number at maturity (no/unit)                          3.50          -99
      Tops weight at maturity (kg [dm]/ha)                  2609          -99
      By-product produced (stalk) at maturity (kg[dm]/ha    1250          -99
      Leaf area index, maximum                              2.28          -99
      Harvest index at maturity                            0.522          -99
      Threshing % at maturity                              66.78          -99
      Grain N at maturity (kg/ha)                             51          -99
      Tops N at maturity (kg/ha)                              73          -99
      Stem N at maturity (kg/ha)                               7          -99
      Grain N at maturity (%)                               3.73          -99
      Tops weight at anthesis (kg [dm]/ha)                   520          -99
      Tops N at anthesis (kg/ha)                              16          -99
      Leaf number per stem at maturity                      9.81          -99
      Grain oil at maturity (%)                             2.92          -99
      Canopy height (m)                                     0.79          -99
      Harvest maturity day (dap)                              56          -99
      Emergence day (dap)                                      5          -99


*ENVIRONMENTAL AND STRESS FACTORS

 |-----Development Phase------|--------------------------------------Environment--------------------------------------|-----------------Stress-----------------|
                              |---------------Average--------------|-----Cumulative-----|--------Count of days--------|          (0=Min, 1=Max Stress)         |
                         Time  Temp  Temp  Temp Solar Photop                Evapo    Pot TMIN TMIN TMAX TMAX TMAX RAIN|----Water----|---Nitrogen--|-Phosphorus-|
                         Span   Max   Min  Mean   Rad  [day]    CO2   Rain  Trans     ET   <    <    >    >    >    >   Photo         Photo         Photo
                         days    øC    øC    øC MJ/m2     hr    ppm     mm     mm     mm  0øC  2øC 30øC 32øC 34øC  0mm  synth Growth  synth Growth  synth Growth
----------------------------------------------------------------------------------------------------------------------------------------------------------------
 Emergence -First Flower   20  30.5  19.4  24.9  19.4  12.13  346.8   51.8    0.0    0.0    0    0   12    4    0   11  0.000  0.000  0.000  0.154  0.000  0.000
 First Flower-First Seed   10  31.3  19.3  25.3  19.9  12.16  346.9   26.3    0.0    0.0    0    0    9    1    0    6  0.000  0.000  0.000  0.000  0.000  0.000
 First Seed - Phys. Mat.   12  30.1  19.2  24.7  18.5  12.18  346.9   85.1    0.0    0.0    0    0    9    0    0    7  0.000  0.000  0.000  0.000  0.000  0.000
 Emergence  - Phys. Mat.   42  30.5  19.3  24.9  19.3  12.15  346.9  163.2    0.0    0.0    0    0   30    5    0   24  0.000  0.000  0.000  0.073  0.000  0.000


 Planting to Harvest       70  29.7  19.2  24.5  18.7  12.13  346.8  309.9    0.0    0.0    0    0   35    5    0   39  0.000  0.000  0.000  0.044  0.000  0.000
----------------------------------------------------------------------------------------------------------------------------------------------------------------

--------------------------------------------------------------------------------------------------------------

                  Dry bean YIELD :     1362 kg/ha    [Dry weight] 

**************************************************************************************************************

*DSSAT Cropping System Model Ver. 4.6.1.000 -release      JUL 11, 2017; 16:24:44
                                                                                
*RUN   8        : SIM                       CRGRO046 2\000002    1              
 MODEL          : CRGRO046 - Dry bean                                           
 EXPERIMENT     : 2\000002 BN PALMIRA_ANALISIS SENSIBILIDAD                     
 DATA PATH      : D:\B\0\00000                                                  
 TREATMENT  1   : SIM                       CRGRO046                            
                                                                                
                                                                                
 CROP           : Dry bean         CULTIVAR : Jatu Rong        ECOTYPE :ANDIND  
 STARTING DATE  : APR  2 1987                                                   
 PLANTING DATE  : APR 16 1987        PLANTS/m2 : 26.6     ROW SPACING :  60.cm  
 WEATHER        : PALM8034                                                      
 SOIL           : CCPA000030     TEXTURE : C     -   Silty Clay Loam            
 WATER BALANCE  : NOT SIMULATED ; NO H2O-STRESS                                 
 IRRIGATION     :                                                               
 NITROGEN BAL.  : NOT SIMULATED ; NO N-STRESS                                   
 N-FERTILIZER   :                                                               
 RESIDUE/MANURE :                                                               
 ENVIRONM. OPT. : DAYL=    0.00  SRAD=    0.00  TMAX=    0.00  TMIN=    0.00    
                  RAIN=    0.00  CO2 =    0.00  DEW =    0.00  WIND=    0.00    
 SIMULATION OPT : WATER   :N  NITROGEN:N  N-FIX:N  PHOSPH :N  PESTS  :N         
                  PHOTO   :L  ET      :R  INFIL:S  HYDROL :R  SOM    :G         
                  CO2 348ppm  NSWIT   :1  EVAP :S  SOIL   :2  STEMP  :D         
 MANAGEMENT OPT : PLANTING:A  IRRIG   :A  FERT :D  RESIDUE:N  HARVEST:M         
                  WEATHER :M  TILLAGE :N                                        
                                                                                
*SUMMARY OF SOIL AND GENETIC INPUT PARAMETERS                                   
                                                                                
 Dry bean   CULTIVAR :000002-Jatu Rong          ECOTYPE :ANDIND                 
 CSDVAR :12.17  PPSEN  : 0.05  EMG-FLW:19.00  FLW-FSD: 9.00  FSD-PHM : 11.00    
 WTPSD  :0.600  SDPDVR : 3.50  SDFDUR :15.00  PODDUR :10.00  XFRUIT  :  1.00    
 THRESH : 78.0  SDPRO  :0.235  SDLIP   : 0.030                                  


*SIMULATED CROP AND SOIL STATUS AT MAIN DEVELOPMENT STAGES

 RUN NO.     8     SIM                     

        CROP GROWTH     BIOMASS         LEAF   CROP N     STRESS      STRESS                                           
   DATE  AGE STAGE        kg/ha    LAI   NUM  kg/ha  %   H2O  Nitr Phos1 Phos2  RSTG                                   
 ------  --- ----------   -----  -----  ----  ---  ---  ----  ----  ----  ----  ----                                   
  2 APR    0 Start Sim        0   0.00   0.0    0  0.0  0.00  0.00  0.00  0.00     0
 16 APR    0 Sowing           0   0.00   0.0    0  0.0  0.00  0.00  0.00  0.00     0
 21 APR    5 Emergence       44   0.08   0.2    1  3.4  0.00  0.00  0.00  0.00     0
 21 APR    5 End Juven.      44   0.08   0.2    1  3.4  0.00  0.00  0.00  0.00     0
 24 APR    8 Unifoliate      49   0.09   1.1    2  3.3  0.00  0.65  0.00  0.00     0
 26 APR   10 Flower Ind      56   0.10   1.7    2  3.2  0.00  0.43  0.00  0.00     0
 11 MAY   25 First Flwr     547   1.39   6.2   17  3.1  0.00  0.01  0.00  0.00     1
 14 MAY   28 First Pod      783   1.87   7.1   24  3.1  0.00  0.00  0.00  0.00     3
 21 MAY   35 First Seed    1532   2.34   9.2   47  3.1  0.00  0.00  0.00  0.00     5
 23 MAY   37 End Msnode    1785   2.38   9.8   54  3.0  0.00  0.00  0.00  0.00     5
 28 MAY   42 End Pod       2405   2.22   9.8   71  3.0  0.00  0.00  0.00  0.00     5
 30 MAY   44 End Leaf      2635   2.10   9.8   77  2.9  0.00  0.00  0.00  0.00     5
  2 JUN   47 Phys. Mat     2961   1.90   9.8   85  2.9  0.00  0.00  0.00  0.00     7
 11 JUN   56 Harv. Mat     2695   0.13   9.8   76  2.8  0.00  0.00  0.00  0.00     8
 11 JUN   56 Harvest       2695   0.13   9.8   76  2.8  0.00  0.00  0.00  0.00     8


*MAIN GROWTH AND DEVELOPMENT VARIABLES

@     VARIABLE                                         SIMULATED     MEASURED
      --------                                         ---------     --------
      Anthesis day (dap)                                      25          -99
      First pod day (dap)                                     28          -99
      First seed day (dap)                                    35          -99
      Physiological maturity day (dap)                        47          -99
      Yield at harvest maturity (kg [dm]/ha)                1436          -99
      Pod/Ear/Panicle weight at maturity (kg [dm]/ha)       2115          -99
      Number at maturity (no/m2)                             456          -99
      Unit wt at maturity (g [dm]/unit)                   0.3148          -99
      Number at maturity (no/unit)                          3.50          -99
      Tops weight at maturity (kg [dm]/ha)                  2695          -99
      By-product produced (stalk) at maturity (kg[dm]/ha    1260          -99
      Leaf area index, maximum                              2.38          -99
      Harvest index at maturity                            0.533          -99
      Threshing % at maturity                              67.93          -99
      Grain N at maturity (kg/ha)                             54          -99
      Tops N at maturity (kg/ha)                              76          -99
      Stem N at maturity (kg/ha)                               6          -99
      Grain N at maturity (%)                               3.79          -99
      Tops weight at anthesis (kg [dm]/ha)                   547          -99
      Tops N at anthesis (kg/ha)                              17          -99
      Leaf number per stem at maturity                      9.80          -99
      Grain oil at maturity (%)                             2.90          -99
      Canopy height (m)                                     0.79          -99
      Harvest maturity day (dap)                              56          -99
      Emergence day (dap)                                      5          -99


*ENVIRONMENTAL AND STRESS FACTORS

 |-----Development Phase------|--------------------------------------Environment--------------------------------------|-----------------Stress-----------------|
                              |---------------Average--------------|-----Cumulative-----|--------Count of days--------|          (0=Min, 1=Max Stress)         |
                         Time  Temp  Temp  Temp Solar Photop                Evapo    Pot TMIN TMIN TMAX TMAX TMAX RAIN|----Water----|---Nitrogen--|-Phosphorus-|
                         Span   Max   Min  Mean   Rad  [day]    CO2   Rain  Trans     ET   <    <    >    >    >    >   Photo         Photo         Photo
                         days    øC    øC    øC MJ/m2     hr    ppm     mm     mm     mm  0øC  2øC 30øC 32øC 34øC  0mm  synth Growth  synth Growth  synth Growth
----------------------------------------------------------------------------------------------------------------------------------------------------------------
 Emergence -First Flower   20  31.3  18.9  25.1  20.7  12.13  348.5  126.1    0.0    0.0    0    0   17    5    1   13  0.000  0.000  0.000  0.148  0.000  0.000
 First Flower-First Seed   10  30.8  19.2  25.0  19.5  12.16  348.6   69.0    0.0    0.0    0    0    7    3    0    6  0.000  0.000  0.000  0.000  0.000  0.000
 First Seed - Phys. Mat.   12  31.6  19.6  25.6  19.6  12.18  348.6   36.8    0.0    0.0    0    0   10    5    0    4  0.000  0.000  0.000  0.000  0.000  0.000
 Emergence  - Phys. Mat.   42  31.3  19.2  25.2  20.1  12.15  348.5  231.9    0.0    0.0    0    0   34   13    1   23  0.000  0.000  0.000  0.070  0.000  0.000


 Planting to Harvest       70  31.2  19.3  25.2  20.0  12.13  348.5  238.7    0.0    0.0    0    0   54   20    1   28  0.000  0.000  0.000  0.042  0.000  0.000
----------------------------------------------------------------------------------------------------------------------------------------------------------------

--------------------------------------------------------------------------------------------------------------

                  Dry bean YIELD :     1436 kg/ha    [Dry weight] 

**************************************************************************************************************

*DSSAT Cropping System Model Ver. 4.6.1.000 -release      JUL 11, 2017; 16:24:44
                                                                                
*RUN   9        : SIM                       CRGRO046 2\000002    1              
 MODEL          : CRGRO046 - Dry bean                                           
 EXPERIMENT     : 2\000002 BN PALMIRA_ANALISIS SENSIBILIDAD                     
 DATA PATH      : D:\B\0\00000                                                  
 TREATMENT  1   : SIM                       CRGRO046                            
                                                                                
                                                                                
 CROP           : Dry bean         CULTIVAR : Jatu Rong        ECOTYPE :ANDIND  
 STARTING DATE  : APR  1 1988                                                   
 PLANTING DATE  : APR 15 1988        PLANTS/m2 : 26.6     ROW SPACING :  60.cm  
 WEATHER        : PALM8034                                                      
 SOIL           : CCPA000030     TEXTURE : C     -   Silty Clay Loam            
 WATER BALANCE  : NOT SIMULATED ; NO H2O-STRESS                                 
 IRRIGATION     :                                                               
 NITROGEN BAL.  : NOT SIMULATED ; NO N-STRESS                                   
 N-FERTILIZER   :                                                               
 RESIDUE/MANURE :                                                               
 ENVIRONM. OPT. : DAYL=    0.00  SRAD=    0.00  TMAX=    0.00  TMIN=    0.00    
                  RAIN=    0.00  CO2 =    0.00  DEW =    0.00  WIND=    0.00    
 SIMULATION OPT : WATER   :N  NITROGEN:N  N-FIX:N  PHOSPH :N  PESTS  :N         
                  PHOTO   :L  ET      :R  INFIL:S  HYDROL :R  SOM    :G         
                  CO2 351ppm  NSWIT   :1  EVAP :S  SOIL   :2  STEMP  :D         
 MANAGEMENT OPT : PLANTING:A  IRRIG   :A  FERT :D  RESIDUE:N  HARVEST:M         
                  WEATHER :M  TILLAGE :N                                        
                                                                                
*SUMMARY OF SOIL AND GENETIC INPUT PARAMETERS                                   
                                                                                
 Dry bean   CULTIVAR :000002-Jatu Rong          ECOTYPE :ANDIND                 
 CSDVAR :12.17  PPSEN  : 0.05  EMG-FLW:19.00  FLW-FSD: 9.00  FSD-PHM : 11.00    
 WTPSD  :0.600  SDPDVR : 3.50  SDFDUR :15.00  PODDUR :10.00  XFRUIT  :  1.00    
 THRESH : 78.0  SDPRO  :0.235  SDLIP   : 0.030                                  


*SIMULATED CROP AND SOIL STATUS AT MAIN DEVELOPMENT STAGES

 RUN NO.     9     SIM                     

        CROP GROWTH     BIOMASS         LEAF   CROP N     STRESS      STRESS                                           
   DATE  AGE STAGE        kg/ha    LAI   NUM  kg/ha  %   H2O  Nitr Phos1 Phos2  RSTG                                   
 ------  --- ----------   -----  -----  ----  ---  ---  ----  ----  ----  ----  ----                                   
  1 APR    0 Start Sim        0   0.00   0.0    0  0.0  0.00  0.00  0.00  0.00     0
 15 APR    0 Sowing           0   0.00   0.0    0  0.0  0.00  0.00  0.00  0.00     0
 20 APR    5 Emergence       44   0.08   0.2    1  3.4  0.00  0.00  0.00  0.00     0
 20 APR    5 End Juven.      44   0.08   0.2    1  3.4  0.00  0.00  0.00  0.00     0
 23 APR    8 Unifoliate      48   0.09   1.0    2  3.3  0.00  0.65  0.00  0.00     0
 25 APR   10 Flower Ind      56   0.10   1.6    2  3.2  0.00  0.41  0.00  0.00     0
 10 MAY   25 First Flwr     486   1.31   6.1   15  3.0  0.00  0.02  0.00  0.00     1
 13 MAY   28 First Pod      712   1.77   7.0   22  3.1  0.00  0.00  0.00  0.00     3
 20 MAY   35 First Seed    1389   2.18   9.0   43  3.1  0.00  0.00  0.00  0.00     5
 22 MAY   37 End Msnode    1630   2.21   9.6   50  3.0  0.00  0.00  0.00  0.00     5
 27 MAY   42 End Pod       2194   2.06   9.6   66  3.0  0.00  0.00  0.00  0.00     5
 30 MAY   45 End Leaf      2516   1.90   9.6   74  2.9  0.00  0.00  0.00  0.00     5
  1 JUN   47 Phys. Mat     2727   1.77   9.6   79  2.9  0.00  0.00  0.00  0.00     7
 10 JUN   56 Harv. Mat     2540   0.12   9.6   72  2.8  0.00  0.00  0.00  0.00     8
 10 JUN   56 Harvest       2540   0.12   9.6   72  2.8  0.00  0.00  0.00  0.00     8


*MAIN GROWTH AND DEVELOPMENT VARIABLES

@     VARIABLE                                         SIMULATED     MEASURED
      --------                                         ---------     --------
      Anthesis day (dap)                                      25          -99
      First pod day (dap)                                     28          -99
      First seed day (dap)                                    35          -99
      Physiological maturity day (dap)                        47          -99
      Yield at harvest maturity (kg [dm]/ha)                1305          -99
      Pod/Ear/Panicle weight at maturity (kg [dm]/ha)       2023          -99
      Number at maturity (no/m2)                             450          -99
      Unit wt at maturity (g [dm]/unit)                   0.2901          -99
      Number at maturity (no/unit)                          3.50          -99
      Tops weight at maturity (kg [dm]/ha)                  2540          -99
      By-product produced (stalk) at maturity (kg[dm]/ha    1240          -99
      Leaf area index, maximum                              2.21          -99
      Harvest index at maturity                            0.514          -99
      Threshing % at maturity                              64.49          -99
      Grain N at maturity (kg/ha)                             50          -99
      Tops N at maturity (kg/ha)                              72          -99
      Stem N at maturity (kg/ha)                               6          -99
      Grain N at maturity (%)                               3.82          -99
      Tops weight at anthesis (kg [dm]/ha)                   486          -99
      Tops N at anthesis (kg/ha)                              15          -99
      Leaf number per stem at maturity                      9.63          -99
      Grain oil at maturity (%)                             2.83          -99
      Canopy height (m)                                     0.76          -99
      Harvest maturity day (dap)                              56          -99
      Emergence day (dap)                                      5          -99


*ENVIRONMENTAL AND STRESS FACTORS

 |-----Development Phase------|--------------------------------------Environment--------------------------------------|-----------------Stress-----------------|
                              |---------------Average--------------|-----Cumulative-----|--------Count of days--------|          (0=Min, 1=Max Stress)         |
                         Time  Temp  Temp  Temp Solar Photop                Evapo    Pot TMIN TMIN TMAX TMAX TMAX RAIN|----Water----|---Nitrogen--|-Phosphorus-|
                         Span   Max   Min  Mean   Rad  [day]    CO2   Rain  Trans     ET   <    <    >    >    >    >   Photo         Photo         Photo
                         days    øC    øC    øC MJ/m2     hr    ppm     mm     mm     mm  0øC  2øC 30øC 32øC 34øC  0mm  synth Growth  synth Growth  synth Growth
----------------------------------------------------------------------------------------------------------------------------------------------------------------
 Emergence -First Flower   20  29.2  19.3  24.3  18.3  12.13  351.0   68.8    0.0    0.0    0    0    4    0    0    8  0.000  0.000  0.000  0.153  0.000  0.000
 First Flower-First Seed   10  29.3  19.3  24.3  18.0  12.16  351.1   16.3    0.0    0.0    0    0    4    0    0    3  0.000  0.000  0.000  0.000  0.000  0.000
 First Seed - Phys. Mat.   12  29.2  19.0  24.1  18.0  12.18  351.2   94.0    0.0    0.0    0    0    3    1    1    8  0.000  0.000  0.000  0.000  0.000  0.000
 Emergence  - Phys. Mat.   42  29.2  19.2  24.2  18.2  12.15  351.1  179.1    0.0    0.0    0    0   11    1    1   19  0.000  0.000  0.000  0.073  0.000  0.000


 Planting to Harvest       70  29.4  19.3  24.3  18.3  12.13  351.1  343.9    0.0    0.0    0    0   26    6    1   33  0.000  0.000  0.000  0.044  0.000  0.000
----------------------------------------------------------------------------------------------------------------------------------------------------------------

--------------------------------------------------------------------------------------------------------------

                  Dry bean YIELD :     1305 kg/ha    [Dry weight] 

**************************************************************************************************************

*DSSAT Cropping System Model Ver. 4.6.1.000 -release      JUL 11, 2017; 16:24:44
                                                                                
*RUN  10        : SIM                       CRGRO046 2\000002    1              
 MODEL          : CRGRO046 - Dry bean                                           
 EXPERIMENT     : 2\000002 BN PALMIRA_ANALISIS SENSIBILIDAD                     
 DATA PATH      : D:\B\0\00000                                                  
 TREATMENT  1   : SIM                       CRGRO046                            
[...]
      Emergence day (dap)                                      5          -99


*ENVIRONMENTAL AND STRESS FACTORS

 |-----Development Phase------|--------------------------------------Environment--------------------------------------|-----------------Stress-----------------|
                              |---------------Average--------------|-----Cumulative-----|--------Count of days--------|          (0=Min, 1=Max Stress)         |
                         Time  Temp  Temp  Temp Solar Photop                Evapo    Pot TMIN TMIN TMAX TMAX TMAX RAIN|----Water----|---Nitrogen--|-Phosphorus-|
                         Span   Max   Min  Mean   Rad  [day]    CO2   Rain  Trans     ET   <    <    >    >    >    >   Photo         Photo         Photo
                         days    øC    øC    øC MJ/m2     hr    ppm     mm     mm     mm  0øC  2øC 30øC 32øC 34øC  0mm  synth Growth  synth Growth  synth Growth
----------------------------------------------------------------------------------------------------------------------------------------------------------------
 Emergence -First Flower   20  30.4  19.1  24.8  19.6  12.13  386.9   48.3    0.0    0.0    0    0   15    2    0   12  0.000  0.000  0.000  0.141  0.000  0.000
 First Flower-First Seed   10  30.6  18.8  24.7  19.7  12.16  387.0    4.4    0.0    0.0    0    0    8    0    0    3  0.000  0.000  0.000  0.000  0.000  0.000
 First Seed - Phys. Mat.   12  30.8  19.0  24.9  19.4  12.18  387.1    0.2    0.0    0.0    0    0    8    2    0    1  0.000  0.000  0.000  0.000  0.000  0.000
 Emergence  - Phys. Mat.   42  30.6  19.0  24.8  19.6  12.15  387.0   52.9    0.0    0.0    0    0   31    4    0   16  0.000  0.000  0.000  0.067  0.000  0.000


 Planting to Harvest       70  30.2  19.2  24.7  19.3  12.13  387.0  104.3    0.0    0.0    0    0   44    5    0   30  0.000  0.000  0.000  0.040  0.000  0.000
----------------------------------------------------------------------------------------------------------------------------------------------------------------

--------------------------------------------------------------------------------------------------------------

                  Dry bean YIELD :     1420 kg/ha    [Dry weight] 

**************************************************************************************************************

*DSSAT Cropping System Model Ver. 4.6.1.000 -release      JUL 11, 2017; 16:24:44
                                                                                
*RUN  31        : SIM                       CRGRO046 2\000002    1              
 MODEL          : CRGRO046 - Dry bean                                           
 EXPERIMENT     : 2\000002 BN PALMIRA_ANALISIS SENSIBILIDAD                     
 DATA PATH      : D:\B\0\00000                                                  
 TREATMENT  1   : SIM                       CRGRO046                            
                                                                                
                                                                                
 CROP           : Dry bean         CULTIVAR : Jatu Rong        ECOTYPE :ANDIND  
 STARTING DATE  : APR  2 2010                                                   
 PLANTING DATE  : APR 16 2010        PLANTS/m2 : 26.6     ROW SPACING :  60.cm  
 WEATHER        : PALM8034                                                      
 SOIL           : CCPA000030     TEXTURE : C     -   Silty Clay Loam            
 WATER BALANCE  : NOT SIMULATED ; NO H2O-STRESS                                 
 IRRIGATION     :                                                               
 NITROGEN BAL.  : NOT SIMULATED ; NO N-STRESS                                   
 N-FERTILIZER   :                                                               
 RESIDUE/MANURE :                                                               
 ENVIRONM. OPT. : DAYL=    0.00  SRAD=    0.00  TMAX=    0.00  TMIN=    0.00    
                  RAIN=    0.00  CO2 =    0.00  DEW =    0.00  WIND=    0.00    
 SIMULATION OPT : WATER   :N  NITROGEN:N  N-FIX:N  PHOSPH :N  PESTS  :N         
                  PHOTO   :L  ET      :R  INFIL:S  HYDROL :R  SOM    :G         
                  CO2 389ppm  NSWIT   :1  EVAP :S  SOIL   :2  STEMP  :D         
 MANAGEMENT OPT : PLANTING:A  IRRIG   :A  FERT :D  RESIDUE:N  HARVEST:M         
                  WEATHER :M  TILLAGE :N                                        
                                                                                
*SUMMARY OF SOIL AND GENETIC INPUT PARAMETERS                                   
                                                                                
 Dry bean   CULTIVAR :000002-Jatu Rong          ECOTYPE :ANDIND                 
 CSDVAR :12.17  PPSEN  : 0.05  EMG-FLW:19.00  FLW-FSD: 9.00  FSD-PHM : 11.00    
 WTPSD  :0.600  SDPDVR : 3.50  SDFDUR :15.00  PODDUR :10.00  XFRUIT  :  1.00    
 THRESH : 78.0  SDPRO  :0.235  SDLIP   : 0.030                                  


*SIMULATED CROP AND SOIL STATUS AT MAIN DEVELOPMENT STAGES

 RUN NO.    31     SIM                     

        CROP GROWTH     BIOMASS         LEAF   CROP N     STRESS      STRESS                                           
   DATE  AGE STAGE        kg/ha    LAI   NUM  kg/ha  %   H2O  Nitr Phos1 Phos2  RSTG                                   
 ------  --- ----------   -----  -----  ----  ---  ---  ----  ----  ----  ----  ----                                   
  2 APR    0 Start Sim        0   0.00   0.0    0  0.0  0.00  0.00  0.00  0.00     0
 16 APR    0 Sowing           0   0.00   0.0    0  0.0  0.00  0.00  0.00  0.00     0
 21 APR    5 Emergence       44   0.08   0.2    1  3.4  0.00  0.00  0.00  0.00     0
 21 APR    5 End Juven.      44   0.08   0.2    1  3.4  0.00  0.00  0.00  0.00     0
 24 APR    8 Unifoliate      49   0.09   1.1    2  3.3  0.00  0.66  0.00  0.00     0
 26 APR   10 Flower Ind      55   0.10   1.7    2  3.1  0.00  0.45  0.00  0.00     0
 11 MAY   25 First Flwr     548   1.47   6.3   17  3.0  0.00  0.01  0.00  0.00     1
 13 MAY   27 First Pod      706   1.80   6.9   22  3.1  0.00  0.00  0.00  0.00     3
 20 MAY   34 First Seed    1445   2.38   9.1   44  3.1  0.00  0.00  0.00  0.00     5
 22 MAY   36 End Msnode    1668   2.42   9.7   51  3.0  0.00  0.00  0.00  0.00     5
 27 MAY   41 End Pod       2263   2.26   9.7   68  3.0  0.00  0.00  0.00  0.00     5
 30 MAY   44 End Leaf      2609   2.08   9.7   76  2.9  0.00  0.00  0.00  0.00     5
  1 JUN   46 Phys. Mat     2843   1.94   9.7   82  2.9  0.00  0.00  0.00  0.00     7
 10 JUN   55 Harv. Mat     2606   0.13   9.7   73  2.8  0.00  0.00  0.00  0.00     8
 10 JUN   55 Harvest       2606   0.13   9.7   73  2.8  0.00  0.00  0.00  0.00     8


*MAIN GROWTH AND DEVELOPMENT VARIABLES

@     VARIABLE                                         SIMULATED     MEASURED
      --------                                         ---------     --------
      Anthesis day (dap)                                      25          -99
      First pod day (dap)                                     27          -99
      First seed day (dap)                                    34          -99
      Physiological maturity day (dap)                        46          -99
      Yield at harvest maturity (kg [dm]/ha)                1356          -99
      Pod/Ear/Panicle weight at maturity (kg [dm]/ha)       2062          -99
      Number at maturity (no/m2)                             459          -99
      Unit wt at maturity (g [dm]/unit)                   0.2950          -99
      Number at maturity (no/unit)                          3.50          -99
      Tops weight at maturity (kg [dm]/ha)                  2606          -99
      By-product produced (stalk) at maturity (kg[dm]/ha    1250          -99
      Leaf area index, maximum                              2.42          -99
      Harvest index at maturity                            0.520          -99
      Threshing % at maturity                              65.73          -99
      Grain N at maturity (kg/ha)                             51          -99
      Tops N at maturity (kg/ha)                              73          -99
      Stem N at maturity (kg/ha)                               6          -99
      Grain N at maturity (%)                               3.76          -99
      Tops weight at anthesis (kg [dm]/ha)                   548          -99
      Tops N at anthesis (kg/ha)                              17          -99
      Leaf number per stem at maturity                      9.66          -99
      Grain oil at maturity (%)                             2.89          -99
      Canopy height (m)                                     0.77          -99
      Harvest maturity day (dap)                              55          -99
      Emergence day (dap)                                      5          -99


*ENVIRONMENTAL AND STRESS FACTORS

 |-----Development Phase------|--------------------------------------Environment--------------------------------------|-----------------Stress-----------------|
                              |---------------Average--------------|-----Cumulative-----|--------Count of days--------|          (0=Min, 1=Max Stress)         |
                         Time  Temp  Temp  Temp Solar Photop                Evapo    Pot TMIN TMIN TMAX TMAX TMAX RAIN|----Water----|---Nitrogen--|-Phosphorus-|
                         Span   Max   Min  Mean   Rad  [day]    CO2   Rain  Trans     ET   <    <    >    >    >    >   Photo         Photo         Photo
                         days    øC    øC    øC MJ/m2     hr    ppm     mm     mm     mm  0øC  2øC 30øC 32øC 34øC  0mm  synth Growth  synth Growth  synth Growth
----------------------------------------------------------------------------------------------------------------------------------------------------------------
 Emergence -First Flower   20  29.6  20.2  24.9  17.9  12.13  389.4  122.8    0.0    0.0    0    0   10    0    0   10  0.000  0.000  0.000  0.149  0.000  0.000
 First Flower-First Seed    9  31.0  20.9  26.0  18.2  12.16  389.5    5.3    0.0    0.0    0    0    8    1    0    3  0.000  0.000  0.000  0.000  0.000  0.000
 First Seed - Phys. Mat.   12  28.4  19.9  24.2  16.3  12.18  389.6   55.2    0.0    0.0    0    0    4    0    0    7  0.000  0.000  0.000  0.000  0.000  0.000
 Emergence  - Phys. Mat.   41  29.5  20.3  24.9  17.5  12.15  389.5  183.3    0.0    0.0    0    0   22    1    0   20  0.000  0.000  0.000  0.073  0.000  0.000


 Planting to Harvest       69  29.4  20.0  24.7  17.7  12.13  389.4  363.2    0.0    0.0    0    0   36    3    0   38  0.000  0.000  0.000  0.043  0.000  0.000
----------------------------------------------------------------------------------------------------------------------------------------------------------------

--------------------------------------------------------------------------------------------------------------

                  Dry bean YIELD :     1356 kg/ha    [Dry weight] 

**************************************************************************************************************

*DSSAT Cropping System Model Ver. 4.6.1.000 -release      JUL 11, 2017; 16:24:44
                                                                                
*RUN  32        : SIM                       CRGRO046 2\000002    1              
 MODEL          : CRGRO046 - Dry bean                                           
 EXPERIMENT     : 2\000002 BN PALMIRA_ANALISIS SENSIBILIDAD                     
 DATA PATH      : D:\B\0\00000                                                  
 TREATMENT  1   : SIM                       CRGRO046                            
                                                                                
                                                                                
 CROP           : Dry bean         CULTIVAR : Jatu Rong        ECOTYPE :ANDIND  
 STARTING DATE  : APR  2 2011                                                   
 PLANTING DATE  : APR 16 2011        PLANTS/m2 : 26.6     ROW SPACING :  60.cm  
 WEATHER        : PALM8034                                                      
 SOIL           : CCPA000030     TEXTURE : C     -   Silty Clay Loam            
 WATER BALANCE  : NOT SIMULATED ; NO H2O-STRESS                                 
 IRRIGATION     :                                                               
 NITROGEN BAL.  : NOT SIMULATED ; NO N-STRESS                                   
 N-FERTILIZER   :                                                               
 RESIDUE/MANURE :                                                               
 ENVIRONM. OPT. : DAYL=    0.00  SRAD=    0.00  TMAX=    0.00  TMIN=    0.00    
                  RAIN=    0.00  CO2 =    0.00  DEW =    0.00  WIND=    0.00    
 SIMULATION OPT : WATER   :N  NITROGEN:N  N-FIX:N  PHOSPH :N  PESTS  :N         
                  PHOTO   :L  ET      :R  INFIL:S  HYDROL :R  SOM    :G         
                  CO2 391ppm  NSWIT   :1  EVAP :S  SOIL   :2  STEMP  :D         
 MANAGEMENT OPT : PLANTING:A  IRRIG   :A  FERT :D  RESIDUE:N  HARVEST:M         
                  WEATHER :M  TILLAGE :N                                        
                                                                                
*SUMMARY OF SOIL AND GENETIC INPUT PARAMETERS                                   
                                                                                
 Dry bean   CULTIVAR :000002-Jatu Rong          ECOTYPE :ANDIND                 
 CSDVAR :12.17  PPSEN  : 0.05  EMG-FLW:19.00  FLW-FSD: 9.00  FSD-PHM : 11.00    
 WTPSD  :0.600  SDPDVR : 3.50  SDFDUR :15.00  PODDUR :10.00  XFRUIT  :  1.00    
 THRESH : 78.0  SDPRO  :0.235  SDLIP   : 0.030                                  


*SIMULATED CROP AND SOIL STATUS AT MAIN DEVELOPMENT STAGES

 RUN NO.    32     SIM                     

        CROP GROWTH     BIOMASS         LEAF   CROP N     STRESS      STRESS                                           
   DATE  AGE STAGE        kg/ha    LAI   NUM  kg/ha  %   H2O  Nitr Phos1 Phos2  RSTG                                   
 ------  --- ----------   -----  -----  ----  ---  ---  ----  ----  ----  ----  ----                                   
  2 APR    0 Start Sim        0   0.00   0.0    0  0.0  0.00  0.00  0.00  0.00     0
 16 APR    0 Sowing           0   0.00   0.0    0  0.0  0.00  0.00  0.00  0.00     0
 21 APR    5 Emergence       44   0.08   0.2    1  3.4  0.00  0.00  0.00  0.00     0
 21 APR    5 End Juven.      44   0.08   0.2    1  3.4  0.00  0.00  0.00  0.00     0
 24 APR    8 Unifoliate      49   0.09   1.1    2  3.3  0.00  0.64  0.00  0.00     0
 26 APR   10 Flower Ind      57   0.10   1.7    2  3.1  0.00  0.39  0.00  0.00     0
 11 MAY   25 First Flwr     550   1.46   6.2   17  3.0  0.00  0.01  0.00  0.00     1
 14 MAY   28 First Pod      791   1.95   7.1   24  3.1  0.00  0.00  0.00  0.00     3
 21 MAY   35 First Seed    1579   2.40   9.2   49  3.1  0.00  0.00  0.00  0.00     5
 23 MAY   37 End Msnode    1851   2.43   9.7   56  3.0  0.00  0.00  0.00  0.00     5
 28 MAY   42 End Pod       2506   2.27   9.7   74  3.0  0.00  0.00  0.00  0.00     5
 31 MAY   45 End Leaf      2864   2.07   9.7   83  2.9  0.00  0.00  0.00  0.00     5
  2 JUN   47 Phys. Mat     3085   1.94   9.7   88  2.9  0.00  0.00  0.00  0.00     7
 11 JUN   56 Harv. Mat     2840   0.13   9.7   80  2.8  0.00  0.00  0.00  0.00     8
 11 JUN   56 Harvest       2840   0.13   9.7   80  2.8  0.00  0.00  0.00  0.00     8


*MAIN GROWTH AND DEVELOPMENT VARIABLES

@     VARIABLE                                         SIMULATED     MEASURED
      --------                                         ---------     --------
      Anthesis day (dap)                                      25          -99
      First pod day (dap)                                     28          -99
      First seed day (dap)                                    35          -99
      Physiological maturity day (dap)                        47          -99
      Yield at harvest maturity (kg [dm]/ha)                1497          -99
      Pod/Ear/Panicle weight at maturity (kg [dm]/ha)       2244          -99
      Number at maturity (no/m2)                             496          -99
      Unit wt at maturity (g [dm]/unit)                   0.3016          -99
      Number at maturity (no/unit)                          3.50          -99
      Tops weight at maturity (kg [dm]/ha)                  2840          -99
      By-product produced (stalk) at maturity (kg[dm]/ha    1340          -99
      Leaf area index, maximum                              2.43          -99
      Harvest index at maturity                            0.527          -99
      Threshing % at maturity                              66.73          -99
      Grain N at maturity (kg/ha)                             57          -99
      Tops N at maturity (kg/ha)                              80          -99
      Stem N at maturity (kg/ha)                               7          -99
      Grain N at maturity (%)                               3.80          -99
      Tops weight at anthesis (kg [dm]/ha)                   550          -99
      Tops N at anthesis (kg/ha)                              17          -99
      Leaf number per stem at maturity                      9.74          -99
      Grain oil at maturity (%)                             2.85          -99
      Canopy height (m)                                     0.78          -99
      Harvest maturity day (dap)                              56          -99
      Emergence day (dap)                                      5          -99


*ENVIRONMENTAL AND STRESS FACTORS

 |-----Development Phase------|--------------------------------------Environment--------------------------------------|-----------------Stress-----------------|
                              |---------------Average--------------|-----Cumulative-----|--------Count of days--------|          (0=Min, 1=Max Stress)         |
                         Time  Temp  Temp  Temp Solar Photop                Evapo    Pot TMIN TMIN TMAX TMAX TMAX RAIN|----Water----|---Nitrogen--|-Phosphorus-|
                         Span   Max   Min  Mean   Rad  [day]    CO2   Rain  Trans     ET   <    <    >    >    >    >   Photo         Photo         Photo
                         days    øC    øC    øC MJ/m2     hr    ppm     mm     mm     mm  0øC  2øC 30øC 32øC 34øC  0mm  synth Growth  synth Growth  synth Growth
----------------------------------------------------------------------------------------------------------------------------------------------------------------
 Emergence -First Flower   20  30.3  19.6  24.9  19.1  12.13  391.2   62.9    0.0    0.0    0    0   11    1    0   11  0.000  0.000  0.000  0.143  0.000  0.000
 First Flower-First Seed   10  29.4  18.9  24.1  18.5  12.16  391.3   22.2    0.0    0.0    0    0    4    0    0    5  0.000  0.000  0.000  0.000  0.000  0.000
 First Seed - Phys. Mat.   12  29.9  19.4  24.7  18.2  12.18  391.4   12.1    0.0    0.0    0    0    7    0    0    5  0.000  0.000  0.000  0.000  0.000  0.000
 Emergence  - Phys. Mat.   42  29.9  19.4  24.7  18.7  12.15  391.3   97.2    0.0    0.0    0    0   22    1    0   21  0.000  0.000  0.000  0.068  0.000  0.000


 Planting to Harvest       70  29.7  19.3  24.5  18.6  12.13  391.3  270.5    0.0    0.0    0    0   33    3    0   40  0.000  0.000  0.000  0.041  0.000  0.000
----------------------------------------------------------------------------------------------------------------------------------------------------------------

--------------------------------------------------------------------------------------------------------------

                  Dry bean YIELD :     1497 kg/ha    [Dry weight] 

**************************************************************************************************************
