*GROWTH ASPECTS OUTPUT FILE

*DSSAT Cropping System Model Ver. 4.6.1.000 -release      JUL 11, 2017; 16:24:44
                                                                                
*RUN   1        : SIM                       CRGRO046 2\000002    1              
 MODEL          : CRGRO046 - Dry bean                                           
 EXPERIMENT     : 2\000002 BN PALMIRA_ANALISIS SENSIBILIDAD                     
 DATA PATH      : D:\B\0\00000                                                  
 TREATMENT  1   : SIM                       CRGRO046                            
  
!                                                                                                                                                                                                                                                    Root Dens. (cm/cm3) by soil depth (cm):
!                                                                                                                                                                                                                                                    0-5    5-15   15-25   25-35   35-50   50-65   65-80   80-99  99-122 122-209
@YEAR DOY   DAS   DAP   L#SD   GSTD   LAID   LWAD   SWAD   GWAD   RWAD   VWAD   CWAD   G#AD    GWGD   HIAD   PWAD   P#AD   WSPD   WSGD   NSTD  PST1A  PST2A   KSTD   EWSD    LN%D   SH%D   HIPD   PWDD   PWTD   SLAD   CHTD   CWID   NWAD   RDPD    RL1D    RL2D    RL3D    RL4D    RL5D    RL6D    RL7D    RL8D    RL9D   RL10D    SNW0C   SNW1C
 1980 106    15     0    0.0      0  0.000      0      0      0      0      0      0      0     0.0  0.000      0      0  0.000  0.000  0.000  0.000  0.000  0.000  0.000    0.00   0.00   0.00      0      0    0.0   0.00   0.00    0.0   0.00    0.00    0.00    0.00    0.00    0.00    0.00    0.00    0.00    0.00    0.00        0       0
 1980 107    16     1    0.0      0  0.000      0      0      0      0      0      0      0     0.0  0.000      0      0  0.000  0.000  0.000  0.000  0.000  0.000  0.000    0.00   0.00   0.00      0      0    0.0   0.00   0.00    0.0   0.00    0.00    0.00    0.00    0.00    0.00    0.00    0.00    0.00    0.00    0.00        0       0
 1980 108    17     2    0.0      0  0.000      0      0      0      0      0      0      0     0.0  0.000      0      0  0.000  0.000  0.000  0.000  0.000  0.000  0.000    0.00   0.00   0.00      0      0    0.0   0.00   0.00    0.0   0.00    0.00    0.00    0.00    0.00    0.00    0.00    0.00    0.00    0.00    0.00        0       0
 1980 109    18     3    0.0      0  0.000      0      0      0      0      0      0      0     0.0  0.000      0      0  0.000  0.000  0.000  0.000  0.000  0.000  0.000    0.00   0.00   0.00      0      0    0.0   0.00   0.00    0.0   0.00    0.00    0.00    0.00    0.00    0.00    0.00    0.00    0.00    0.00    0.00        0       0
 1980 110    19     4    0.0      0  0.000      0      0      0      0      0      0      0     0.0  0.000      0      0  0.000  0.000  0.000  0.000  0.000  0.000  0.000    0.00   0.00   0.00      0      0    0.0   0.00   0.00    0.0   0.00    0.00    0.00    0.00    0.00    0.00    0.00    0.00    0.00    0.00    0.00        0       0
 1980 111    20     5    0.2      0  0.079     31     13      0     43     44     44      0     0.0  0.000      0      0  0.000  0.000  0.000  0.000  0.000  0.000  0.000    3.84   0.00   0.00      0      0  256.8   0.04   0.03    0.0   0.27    0.15    0.15    0.15    0.00    0.00    0.00    0.00    0.00    0.00    0.00        0       1
 1980 112    21     6    0.5      0  0.082     31     14      0     50     45     45      0     0.0  0.000      0      0  0.000  0.000  0.646  0.000  0.000  0.000  0.000    3.78   0.00   0.00      0      0  261.8   0.05   0.03    0.0   0.29    0.18    0.18    0.17    0.01    0.00    0.00    0.00    0.00    0.00    0.00        0       2
 1980 113    22     7    0.8      0  0.085     32     15      0     59     47     47      0     0.0  0.000      0      0  0.000  0.000  0.737  0.000  0.000  0.000  0.000    3.72   0.00   0.00      0      0  265.6   0.07   0.04    0.0   0.32    0.21    0.21    0.20    0.02    0.00    0.00    0.00    0.00    0.00    0.00        0       3
 1980 114    23     8    1.1      0  0.088     33     16      0     67     49     49      0     0.0  0.000      0      0  0.000  0.000  0.546  0.000  0.000  0.000  0.000    3.71   0.00   0.00      0      0  271.5   0.08   0.05    0.0   0.34    0.24    0.24    0.21    0.03    0.00    0.00    0.00    0.00    0.00    0.00        0       4
 1980 115    24     9    1.4      0  0.092     33     18      0     74     51     51      0     0.0  0.000      0      0  0.000  0.000  0.519  0.000  0.000  0.000  0.000    3.68   0.00   0.00      0      0  278.2   0.09   0.05    0.0   0.36    0.26    0.26    0.23    0.05    0.00    0.00    0.00    0.00    0.00    0.00        1       6
 1980 116    25    10    1.7      0  0.098     34     22      0     79     56     56      0     0.0  0.000      0      0  0.000  0.000  0.303  0.000  0.000  0.000  0.000    3.66   0.00   0.00      0      0  285.5   0.10   0.06    0.0   0.38    0.28    0.28    0.24    0.06    0.00    0.00    0.00    0.00    0.00    0.00        1       7
 1980 117    26    11    2.0      0  0.114     37     25      0     82     62     62      0     0.0  0.000      0      0  0.000  0.000  0.204  0.000  0.000  0.000  0.000    3.63   0.00   0.00      0      0  308.2   0.11   0.07    0.0   0.40    0.28    0.28    0.25    0.06    0.00    0.00    0.00    0.00    0.00    0.00        2       9
 1980 118    27    12    2.3      0  0.141     44     28      0     82     72     72      0     0.0  0.000      0      0  0.000  0.000  0.000  0.000  0.000  0.000  0.000    3.61   0.00   0.00      0      0  323.5   0.11   0.08    0.0   0.42    0.29    0.29    0.25    0.06    0.00    0.00    0.00    0.00    0.00    0.00        2      11
 1980 119    28    13    2.6      0  0.168     49     34      0     84     83     83      0     0.0  0.000      0      0  0.000  0.000  0.000  0.000  0.000  0.000  0.000    3.56   0.00   0.00      0      0  339.2   0.12   0.08    0.0   0.44    0.29    0.29    0.25    0.07    0.01    0.00    0.00    0.00    0.00    0.00        3      12
 1980 120    29    14    2.9      0  0.206     57     39      0     85     96     96      0     0.0  0.000      0      0  0.000  0.000  0.000  0.000  0.000  0.000  0.000    3.53   0.00   0.00      0      0  358.4   0.13   0.09    0.0   0.46    0.29    0.29    0.25    0.07    0.01    0.00    0.00    0.00    0.00    0.00        3      14
 1980 121    30    15    3.2      0  0.258     70     42      0     85    113    113      0     0.0  0.000      0      0  0.000  0.000  0.000  0.000  0.000  0.000  0.000    3.53   0.00   0.00      0      0  367.5   0.14   0.10    0.0   0.49    0.29    0.29    0.25    0.07    0.01    0.00    0.00    0.00    0.00    0.00        4      16
 1980 122    31    16    3.5      0  0.313     81     49      0     86    131    131      0     0.0  0.000      0      0  0.000  0.000  0.000  0.000  0.000  0.000  0.000    3.52   0.00   0.00      0      0  385.3   0.15   0.12    0.0   0.51    0.29    0.29    0.25    0.07    0.01    0.00    0.00    0.00    0.00    0.00        5      18
 1980 123    32    17    3.8      0  0.365     93     59      0     88    152    152      0     0.0  0.000      0      0  0.000  0.000  0.000  0.000  0.000  0.000  0.000    3.52   0.00   0.00      0      0  390.6   0.16   0.14    0.0   0.53    0.30    0.30    0.25    0.08    0.02    0.00    0.00    0.00    0.00    0.00        5      19
 1980 124    33    18    4.1      0  0.417    105     72      0     90    177    177      0     0.0  0.000      0      0  0.000  0.000  0.000  0.000  0.000  0.000  0.000    3.51   0.00   0.00      0      0  395.5   0.17   0.16    0.0   0.54    0.30    0.30    0.26    0.08    0.02    0.00    0.00    0.00    0.00    0.00        6      21
 1980 125    34    19    4.4      0  0.493    122     83      0     92    206    206      0     0.0  0.000      0      0  0.000  0.000  0.000  0.000  0.000  0.000  0.000    3.52   0.00   0.00      0      0  402.4   0.19   0.18    0.0   0.56    0.31    0.31    0.26    0.09    0.02    0.00    0.00    0.00    0.00    0.00        8      23
 1980 126    35    20    4.7      0  0.604    148     92      0     93    240    240      0     0.0  0.000      0      0  0.000  0.000  0.000  0.000  0.000  0.000  0.000    3.54   0.00   0.00      0      0  407.6   0.20   0.20    0.0   0.58    0.31    0.31    0.26    0.09    0.03    0.00    0.00    0.00    0.00    0.00        9      25
 1980 127    36    21    5.0      0  0.739    178    102      0     94    280    280      0     0.0  0.000      0      0  0.000  0.000  0.000  0.000  0.000  0.000  0.000    3.55   0.00   0.00      0      0  416.4   0.22   0.22    0.0   0.60    0.31    0.31    0.26    0.09    0.03    0.00    0.00    0.00    0.00    0.00       11      27
 1980 128    37    22    5.3      0  0.869    207    120      0     98    327    327      0     0.0  0.000      0      0  0.000  0.000  0.000  0.000  0.000  0.000  0.000    3.56   0.00   0.00      0      0  419.2   0.24   0.25    0.0   0.62    0.32    0.32    0.27    0.10    0.03    0.01    0.00    0.00    0.00    0.00       13      29
 1980 129    38    23    5.6      0  1.018    241    140      0    102    381    381      0     0.0  0.000      0      0  0.000  0.000  0.000  0.000  0.000  0.000  0.000    3.56   0.00   0.00      0      0  422.5   0.26   0.27    0.0   0.64    0.33    0.33    0.27    0.10    0.04    0.01    0.00    0.00    0.00    0.00       15      31
 1980 130    39    24    5.9      0  1.177    279    164      0    107    442    442      0     0.0  0.000      0      0  0.000  0.000  0.000  0.000  0.000  0.000  0.000    3.57   0.00   0.00      0      0  422.3   0.28   0.29    0.0   0.65    0.34    0.34    0.28    0.11    0.04    0.01    0.00    0.00    0.00    0.00       18      33
 1980 131    40    25    6.2      1  1.366    321    192      0    113    512    512      0     0.0  0.000      0      0  0.000  0.000  0.000  0.000  0.000  0.000  0.000    3.57   0.00   0.00      0      0  425.9   0.31   0.31    0.0   0.67    0.35    0.35    0.29    0.12    0.05    0.02    0.00    0.00    0.00    0.00       21      36
 1980 132    41    26    6.5      1  1.532    364    224      0    120    588    588      0     0.0  0.000      0      0  0.000  0.000  0.000  0.000  0.000  0.000  0.000    3.59   0.00   0.00      0      0  421.1   0.34   0.33    0.0   0.69    0.37    0.37    0.30    0.13    0.06    0.02    0.00    0.00    0.00    0.00       29      38
 1980 133    42    27    6.8      1  1.674    403    260      0    127    662    662      0     0.0  0.000      0      0  0.000  0.000  0.000  0.000  0.000  0.000  0.000    3.65   0.00   0.00      0      0  415.6   0.37   0.36    0.0   0.71    0.39    0.39    0.31    0.14    0.06    0.03    0.00    0.00    0.00    0.00       46      41
 1980 134    43    28    7.1      3  1.814    434    293      0    134    727    727      0     0.0  0.000      0      0  0.000  0.000  0.000  0.000  0.000  0.000  0.000    3.71   0.00   0.00      0      0  417.9   0.40   0.38    0.0   0.72    0.40    0.40    0.32    0.14    0.07    0.03    0.00    0.00    0.00    0.00       66      44
 1980 135    44    29    7.4      3  1.928    469    333      0    142    802    805      0     0.0  0.000      3      4  0.000  0.000  0.000  0.000  0.000  0.000  0.000    3.76   0.00   0.00      0      3  411.4   0.43   0.40    0.0   0.74    0.42    0.42    0.34    0.15    0.08    0.03    0.01    0.00    0.00    0.00       89      46
 1980 136    45    30    7.7      3  2.004    497    372      0    149    869    883      0     0.0  0.000     14     12  0.000  0.000  0.000  0.000  0.000  0.000  0.000    3.82   0.00   0.02      0     14  403.4   0.46   0.42    0.0   0.76    0.43    0.43    0.35    0.16    0.09    0.04    0.01    0.00    0.00    0.00      115      49
 1980 137    46    31    7.9      3  2.047    524    415      0    156    939    970      0     0.0  0.000     32     21  0.000  0.000  0.000  0.000  0.000  0.000  0.000    3.88   0.00   0.03      0     32  390.8   0.49   0.44    0.0   0.77    0.45    0.45    0.36    0.17    0.09    0.04    0.01    0.00    0.00    0.00      143      52
 1980 138    47    32    8.2      3  2.109    556    460      0    163   1016   1074      0     0.0  0.000     57     31  0.000  0.000  0.000  0.000  0.000  0.000  0.000    3.89   0.00   0.05      0     57  379.0   0.52   0.46    0.0   0.79    0.47    0.47    0.37    0.18    0.10    0.05    0.02    0.00    0.00    0.00      161      56
 1980 139    48    33    8.5      3  2.164    588    506      0    169   1094   1184      0     0.0  0.000     91     41  0.000  0.000  0.000  0.000  0.000  0.000  0.000    3.88   0.00   0.08      0     91  368.2   0.55   0.48    0.0   0.81    0.48    0.48    0.38    0.19    0.11    0.05    0.02    0.00    0.00    0.00      175      59
 1980 140    49    34    8.8      3  2.206    616    550      0    174   1166   1299      0     0.0  0.000    133     51  0.000  0.000  0.000  0.000  0.000  0.000  0.000    3.86   0.00   0.10      0    133  358.2   0.58   0.50    0.0   0.82    0.49    0.49    0.39    0.20    0.11    0.05    0.02    0.00    0.00    0.00      187      63
 1980 141    50    35    9.1      5  2.235    643    595      0    179   1238   1421      0     0.0  0.000    183     62  0.000  0.000  0.000  0.000  0.000  0.000  0.000    3.85   0.00   0.13      0    183  347.6   0.61   0.52    0.0   0.84    0.50    0.50    0.40    0.20    0.12    0.06    0.02    0.00    0.00    0.00      199      67
 1980 142    51    36    9.5      5  2.248    661    632      0    183   1293   1535     13     0.0  0.000    242     73  0.000  0.000  0.000  0.000  0.000  0.000  0.000    3.82   0.00   0.16      0    242  340.1   0.64   0.54    0.0   0.86    0.51    0.51    0.40    0.21    0.12    0.06    0.03    0.00    0.00    0.00      212      70
 1980 143    52    37    9.8      5  2.256    678    668      5    185   1346   1655     41    12.2  0.003    309     84  0.000  0.000  0.000  0.000  0.000  0.000  0.000    3.79   1.62   0.19      0    309  332.7   0.68   0.55    0.0   0.87    0.51    0.51    0.40    0.21    0.12    0.06    0.03    0.00    0.00    0.00      224      74
 1980 144    53    38    9.8      5  2.249    689    698     21    187   1387   1772    102    20.4  0.012    385     94  0.000  0.000  0.000  0.000  0.000  0.000  0.000    3.77   5.39   0.22      0    385  326.5   0.71   0.57    0.0   0.89    0.51    0.51    0.40    0.21    0.12    0.06    0.03    0.00    0.00    0.00      241      79
 1980 145    54    39    9.8      5  2.225    688    711     60    186   1399   1890    135    44.7  0.032    491    105  0.000  0.000  0.000  0.000  0.000  0.000  0.000    3.76  12.26   0.26      0    491  323.4   0.75   0.59    0.0   0.91    0.51    0.51    0.40    0.21    0.12    0.06    0.03    0.00    0.00    0.00      255      83
 1980 146    55    40    9.8      5  2.188    682    720    111    184   1401   2007    169    65.6  0.055    606    116  0.000  0.000  0.000  0.000  0.000  0.000  0.000    3.71  18.27   0.30      0    606  320.8   0.78   0.60    0.0   0.92    0.50    0.50    0.40    0.21    0.12    0.06    0.03    0.00    0.00    0.00      271      87
 1980 147    56    41    9.8      5  2.141    666    712    177    180   1379   2118    205    86.3  0.083    739    127  0.000  0.000  0.000  0.000  0.000  0.000  0.000    3.65  23.88   0.35      0    739  321.2   0.78   0.60    0.0   0.94    0.49    0.49    0.39    0.20    0.12    0.06    0.03    0.00    0.00    0.00      286      90
 1980 148    57    42    9.8      5  2.087    647    700    256    176   1347   2226    240   106.4  0.115    879    138  0.000  0.000  0.000  0.000  0.000  0.000  0.000    3.59  29.09   0.39      0    879  322.5   0.78   0.60    0.0   0.94    0.48    0.48    0.38    0.20    0.12    0.06    0.03    0.00    0.00    0.00      303      94
 1980 149    58    43    9.8      5  2.029    627    688    348    172   1315   2334    278   124.9  0.149   1019    146  0.000  0.000  0.000  0.000  0.000  0.000  0.000    3.52  34.11   0.44      0   1019  323.7   0.78   0.60    0.0   0.96    0.47    0.47    0.37    0.20    0.12    0.06    0.03    0.00    0.00    0.00      321      98
 1980 150    59    44    9.8      5  1.969    606    675    454    168   1281   2442    317   143.4  0.186   1160    153  0.000  0.000  0.000  0.000  0.000  0.000  0.000    3.44  39.14   0.48      0   1160  325.0   0.78   0.60    0.0   0.97    0.46    0.46    0.36    0.19    0.11    0.06    0.03    0.00    0.00    0.00      340     102
 1980 151    60    45    9.8      5  1.906    584    662    579    163   1246   2542    356   162.7  0.228   1296    157  0.000  0.000  0.000  0.000  0.000  0.000  0.000    3.35  44.67   0.51      0   1296  326.4   0.78   0.60    0.0   0.97    0.45    0.45    0.36    0.19    0.11    0.06    0.03    0.00    0.00    0.00      359     105
 1980 152    61    46    9.8      5  1.842    562    650    715    160   1212   2650    394   181.4  0.270   1438    159  0.000  0.000  0.000  0.000  0.000  0.000  0.000    3.25  49.73   0.54      0   1438  327.8   0.78   0.60    0.0   0.97    0.44    0.44    0.35    0.18    0.11    0.05    0.03    0.00    0.00    0.00      378     109
 1980 153    62    47    9.8      7  1.783    542    639    856    156   1181   2751    394   217.0  0.311   1570    159  0.000  0.000  0.000  0.000  0.000  0.000  0.000    3.15  54.48   0.57      0   1570  329.0   0.78   0.60    0.0   0.97    0.43    0.43    0.34    0.18    0.11    0.05    0.03    0.00    0.00    0.00      393     112
 1980 154    63    48    9.8      7  1.320    400    592    981    153    992   2665    415   236.3  0.368   1673    154  0.000  0.000  0.000  0.000  0.000  0.000  0.000    2.99  58.64   0.63      0   1673  330.3   0.78   0.60    0.0   0.97    0.43    0.43    0.34    0.18    0.10    0.05    0.03    0.00    0.00    0.00      585     115
 1980 155    64    49    9.8      7  0.976    294    557   1098    150    851   2630    418   262.7  0.418   1779    143  0.000  0.000  0.000  0.000  0.000  0.000  0.000    2.82  61.72   0.68      0   1779  331.7   0.78   0.60    0.0   0.97    0.42    0.42    0.33    0.17    0.10    0.05    0.02    0.00    0.00    0.00      719     118
 1980 156    65    50    9.8      7  0.723    217    529   1189    146    746   2610    418   284.4  0.456   1864    134  0.000  0.000  0.000  0.000  0.000  0.000  0.000    2.66  63.81   0.71      0   1864  333.1   0.78   0.60    0.0   0.97    0.41    0.41    0.32    0.17    0.10    0.05    0.02    0.00    0.00    0.00      815     121
 1980 157    66    51    9.8      7  0.536    160    509   1259    143    669   2596    418   301.1  0.485   1927    127  0.000  0.000  0.000  0.000  0.000  0.000  0.000    2.51  65.31   0.74      0   1927  334.5   0.78   0.60    0.0   0.97    0.40    0.40    0.32    0.17    0.10    0.05    0.02    0.00    0.00    0.00      885     124
 1980 158    67    52    9.8      7  0.397    118    492   1310    140    610   2583    418   313.4  0.507   1973    122  0.000  0.000  0.000  0.000  0.000  0.000  0.000    2.37  66.41   0.76      0   1973  336.0   0.78   0.60    0.0   0.97    0.39    0.39    0.31    0.16    0.10    0.05    0.02    0.00    0.00    0.00      937     127
 1980 159    68    53    9.8      7  0.295     87    479   1348    137    567   2573    418   322.5  0.524   2006    120  0.000  0.000  0.000  0.000  0.000  0.000  0.000    2.24  67.21   0.78      0   2006  337.3   0.78   0.60    0.0   0.97    0.38    0.38    0.30    0.16    0.09    0.05    0.02    0.00    0.00    0.00      976     130
 1980 160    69    54    9.8      7  0.219     65    469   1375    133    534   2562    418   329.0  0.537   2028    119  0.000  0.000  0.000  0.000  0.000  0.000  0.000    2.12  67.82   0.79      0   2028  338.6   0.78   0.60    0.0   0.97    0.38    0.38    0.30    0.16    0.09    0.05    0.02    0.00    0.00    0.00     1004     133
 1980 161    70    55    9.8      7  0.163     48    461   1393    130    509   2551    418   333.1  0.546   2041    119  0.000  0.000  0.000  0.000  0.000  0.000  0.000    2.04  68.22   0.80      0   2041  340.0   0.78   0.60    0.0   0.99    0.37    0.37    0.29    0.15    0.09    0.05    0.02    0.00    0.00    0.00     1025     136
 1980 162    71    56    9.8      8  0.122     36    455   1403    128    491   2540    418   335.6  0.552   2049    119  0.000  0.000  0.000  0.000  0.000  0.000  0.000    2.00  68.46   0.81      0   2049  341.2   0.78   0.60    0.0   0.99    0.36    0.36    0.28    0.15    0.09    0.04    0.02    0.00    0.00    0.00     1041     139

*DSSAT Cropping System Model Ver. 4.6.1.000 -release      JUL 11, 2017; 16:24:44
                                                                                
*RUN   2        : SIM                       CRGRO046 2\000002    1              
 MODEL          : CRGRO046 - Dry bean                                           
 EXPERIMENT     : 2\000002 BN PALMIRA_ANALISIS SENSIBILIDAD                     
 DATA PATH      : D:\B\0\00000                                                  
 TREATMENT  1   : SIM                       CRGRO046                            
  
!                                                                                                                                                                                                                                                    Root Dens. (cm/cm3) by soil depth (cm):
!                                                                                                                                                                                                                                                    0-5    5-15   15-25   25-35   35-50   50-65   65-80   80-99  99-122 122-209
@YEAR DOY   DAS   DAP   L#SD   GSTD   LAID   LWAD   SWAD   GWAD   RWAD   VWAD   CWAD   G#AD    GWGD   HIAD   PWAD   P#AD   WSPD   WSGD   NSTD  PST1A  PST2A   KSTD   EWSD    LN%D   SH%D   HIPD   PWDD   PWTD   SLAD   CHTD   CWID   NWAD   RDPD    RL1D    RL2D    RL3D    RL4D    RL5D    RL6D    RL7D    RL8D    RL9D   RL10D    SNW0C   SNW1C
 1981 106    15     0    0.0      0  0.000      0      0      0      0      0      0      0     0.0  0.000      0      0  0.000  0.000  0.000  0.000  0.000  0.000  0.000    0.00   0.00   0.00      0      0    0.0   0.00   0.00    0.0   0.00    0.00    0.00    0.00    0.00    0.00    0.00    0.00    0.00    0.00    0.00        0       0
 1981 107    16     1    0.0      0  0.000      0      0      0      0      0      0      0     0.0  0.000      0      0  0.000  0.000  0.000  0.000  0.000  0.000  0.000    0.00   0.00   0.00      0      0    0.0   0.00   0.00    0.0   0.00    0.00    0.00    0.00    0.00    0.00    0.00    0.00    0.00    0.00    0.00        0       0
 1981 108    17     2    0.0      0  0.000      0      0      0      0      0      0      0     0.0  0.000      0      0  0.000  0.000  0.000  0.000  0.000  0.000  0.000    0.00   0.00   0.00      0      0    0.0   0.00   0.00    0.0   0.00    0.00    0.00    0.00    0.00    0.00    0.00    0.00    0.00    0.00    0.00        0       0
 1981 109    18     3    0.0      0  0.000      0      0      0      0      0      0      0     0.0  0.000      0      0  0.000  0.000  0.000  0.000  0.000  0.000  0.000    0.00   0.00   0.00      0      0    0.0   0.00   0.00    0.0   0.00    0.00    0.00    0.00    0.00    0.00    0.00    0.00    0.00    0.00    0.00        0       0
 1981 110    19     4    0.0      0  0.000      0      0      0      0      0      0      0     0.0  0.000      0      0  0.000  0.000  0.000  0.000  0.000  0.000  0.000    0.00   0.00   0.00      0      0    0.0   0.00   0.00    0.0   0.00    0.00    0.00    0.00    0.00    0.00    0.00    0.00    0.00    0.00    0.00        0       0
 1981 111    20     5    0.2      0  0.079     31     13      0     43     44     44      0     0.0  0.000      0      0  0.000  0.000  0.000  0.000  0.000  0.000  0.000    3.84   0.00   0.00      0      0  256.6   0.04   0.03    0.0   0.27    0.15    0.15    0.15    0.00    0.00    0.00    0.00    0.00    0.00    0.00        0       1
 1981 112    21     6    0.5      0  0.082     31     14      0     51     45     45      0     0.0  0.000      0      0  0.000  0.000  0.653  0.000  0.000  0.000  0.000    3.78   0.00   0.00      0      0  261.6   0.05   0.03    0.0   0.29    0.18    0.18    0.18    0.01    0.00    0.00    0.00    0.00    0.00    0.00        0       2
 1981 113    22     7    0.8      0  0.084     32     15      0     59     46     46      0     0.0  0.000      0      0  0.000  0.000  0.742  0.000  0.000  0.000  0.000    3.73   0.00   0.00      0      0  265.1   0.06   0.04    0.0   0.31    0.21    0.21    0.20    0.02    0.00    0.00    0.00    0.00    0.00    0.00        0       3
 1981 114    23     8    1.1      0  0.087     32     16      0     67     48     48      0     0.0  0.000      0      0  0.000  0.000  0.576  0.000  0.000  0.000  0.000    3.71   0.00   0.00      0      0  270.8   0.07   0.04    0.0   0.33    0.24    0.24    0.22    0.03    0.00    0.00    0.00    0.00    0.00    0.00        0       4
 1981 115    24     9    1.3      0  0.091     33     18      0     74     51     51      0     0.0  0.000      0      0  0.000  0.000  0.498  0.000  0.000  0.000  0.000    3.68   0.00   0.00      0      0  276.8   0.08   0.05    0.0   0.36    0.26    0.26    0.23    0.04    0.00    0.00    0.00    0.00    0.00    0.00        1       6
 1981 116    25    10    1.7      0  0.096     34     21      0     80     54     54      0     0.0  0.000      0      0  0.000  0.000  0.437  0.000  0.000  0.000  0.000    3.66   0.00   0.00      0      0  285.0   0.09   0.06    0.0   0.38    0.28    0.28    0.25    0.06    0.00    0.00    0.00    0.00    0.00    0.00        1       7
 1981 117    26    11    1.9      0  0.107     35     23      0     84     59     59      0     0.0  0.000      0      0  0.000  0.000  0.290  0.000  0.000  0.000  0.000    3.64   0.00   0.00      0      0  303.6   0.10   0.07    0.0   0.40    0.29    0.29    0.25    0.06    0.00    0.00    0.00    0.00    0.00    0.00        2       9
 1981 118    27    12    2.2      0  0.129     41     26      0     84     67     67      0     0.0  0.000      0      0  0.000  0.000  0.000  0.000  0.000  0.000  0.000    3.64   0.00   0.00      0      0  314.7   0.11   0.07    0.0   0.42    0.29    0.29    0.25    0.06    0.00    0.00    0.00    0.00    0.00    0.00        2      10
 1981 119    28    13    2.5      0  0.157     47     31      0     85     78     78      0     0.0  0.000      0      0  0.000  0.000  0.000  0.000  0.000  0.000  0.000    3.58   0.00   0.00      0      0  332.8   0.12   0.08    0.0   0.44    0.30    0.30    0.25    0.07    0.01    0.00    0.00    0.00    0.00    0.00        2      12
 1981 120    29    14    2.8      0  0.183     53     37      0     87     90     90      0     0.0  0.000      0      0  0.000  0.000  0.000  0.000  0.000  0.000  0.000    3.55   0.00   0.00      0      0  347.2   0.12   0.09    0.0   0.46    0.30    0.30    0.26    0.07    0.01    0.00    0.00    0.00    0.00    0.00        3      14
 1981 121    30    15    3.1      0  0.236     64     40      0     87    104    104      0     0.0  0.000      0      0  0.000  0.000  0.000  0.000  0.000  0.000  0.000    3.54   0.00   0.00      0      0  367.4   0.13   0.10    0.0   0.48    0.30    0.30    0.26    0.07    0.01    0.00    0.00    0.00    0.00    0.00        4      16
 1981 122    31    16    3.4      0  0.290     76     46      0     87    122    122      0     0.0  0.000      0      0  0.000  0.000  0.000  0.000  0.000  0.000  0.000    3.53   0.00   0.00      0      0  379.3   0.14   0.11    0.0   0.50    0.30    0.30    0.26    0.07    0.01    0.00    0.00    0.00    0.00    0.00        4      17
 1981 123    32    17    3.7      0  0.343     88     54      0     89    142    142      0     0.0  0.000      0      0  0.000  0.000  0.000  0.000  0.000  0.000  0.000    3.52   0.00   0.00      0      0  388.7   0.15   0.13    0.0   0.52    0.30    0.30    0.26    0.08    0.02    0.00    0.00    0.00    0.00    0.00        5      19
 1981 124    33    18    3.9      0  0.394     99     66      0     91    165    165      0     0.0  0.000      0      0  0.000  0.000  0.000  0.000  0.000  0.000  0.000    3.51   0.00   0.00      0      0  397.7   0.17   0.15    0.0   0.54    0.31    0.31    0.26    0.08    0.02    0.00    0.00    0.00    0.00    0.00        6      21
 1981 125    34    19    4.2      0  0.445    110     80      0     94    190    190      0     0.0  0.000      0      0  0.000  0.000  0.000  0.000  0.000  0.000  0.000    3.51   0.00   0.00      0      0  403.5   0.18   0.17    0.0   0.56    0.31    0.31    0.26    0.09    0.02    0.00    0.00    0.00    0.00    0.00        7      23
 1981 126    35    20    4.5      0  0.548    131     87      0     94    218    218      0     0.0  0.000      0      0  0.000  0.000  0.000  0.000  0.000  0.000  0.000    3.53   0.00   0.00      0      0  417.2   0.19   0.19    0.0   0.57    0.31    0.31    0.26    0.09    0.03    0.00    0.00    0.00    0.00    0.00        8      25
 1981 127    36    21    4.8      0  0.670    159     96      0     95    254    254      0     0.0  0.000      0      0  0.000  0.000  0.000  0.000  0.000  0.000  0.000    3.55   0.00   0.00      0      0  421.8   0.21   0.21    0.0   0.59    0.32    0.32    0.26    0.09    0.03    0.00    0.00    0.00    0.00    0.00       10      27
 1981 128    37    22    5.0      0  0.767    181    108      0     98    289    289      0     0.0  0.000      0      0  0.000  0.000  0.000  0.000  0.000  0.000  0.000    3.55   0.00   0.00      0      0  423.7   0.22   0.23    0.0   0.61    0.32    0.32    0.27    0.09    0.03    0.00    0.00    0.00    0.00    0.00       11      28
 1981 129    38    23    5.3      0  0.893    210    126      0    101    336    336      0     0.0  0.000      0      0  0.000  0.000  0.000  0.000  0.000  0.000  0.000    3.56   0.00   0.00      0      0  424.4   0.24   0.24    0.0   0.62    0.33    0.33    0.27    0.10    0.04    0.01    0.00    0.00    0.00    0.00       13      30
 1981 130    39    24    5.6      0  1.045    244    146      0    105    389    389      0     0.0  0.000      0      0  0.000  0.000  0.000  0.000  0.000  0.000  0.000    3.56   0.00   0.00      0      0  429.2   0.26   0.26    0.0   0.64    0.34    0.34    0.28    0.10    0.04    0.01    0.00    0.00    0.00    0.00       16      32
 1981 131    40    25    5.9      0  1.215    281    169      0    110    450    450      0     0.0  0.000      0      0  0.000  0.000  0.000  0.000  0.000  0.000  0.000    3.57   0.00   0.00      0      0  432.4   0.28   0.29    0.0   0.66    0.35    0.35    0.29    0.11    0.05    0.01    0.00    0.00    0.00    0.00       18      35
 1981 132    41    26    6.2      1  1.401    323    197      0    116    520    520      0     0.0  0.000      0      0  0.000  0.000  0.000  0.000  0.000  0.000  0.000    3.57   0.00   0.00      0      0  434.2   0.31   0.31    0.0   0.67    0.36    0.36    0.30    0.12    0.05    0.02    0.00    0.00    0.00    0.00       22      37
 1981 133    42    27    6.5      1  1.570    365    230      0    123    596    596      0     0.0  0.000      0      0  0.000  0.000  0.000  0.000  0.000  0.000  0.000    3.59   0.00   0.00      0      0  429.9   0.33   0.33    0.0   0.69    0.38    0.38    0.31    0.13    0.06    0.02    0.00    0.00    0.00    0.00       29      39
 1981 134    43    28    6.8      3  1.709    403    266      0    130    669    669      0     0.0  0.000      0      0  0.000  0.000  0.000  0.000  0.000  0.000  0.000    3.65   0.00   0.00      0      0  423.8   0.36   0.35    0.0   0.71    0.40    0.40    0.32    0.14    0.07    0.03    0.00    0.00    0.00    0.00       46      42
 1981 135    44    29    7.1      3  1.824    442    306      0    138    748    748      0     0.0  0.000      0      0  0.000  0.000  0.000  0.000  0.000  0.000  0.000    3.71   0.00   0.00      0      0  412.3   0.39   0.37    0.0   0.72    0.41    0.41    0.33    0.15    0.07    0.03    0.00    0.00    0.00    0.00       65      45
 1981 136    45    30    7.3      3  1.930    473    344      0    146    818    820      0     0.0  0.000      3      3  0.000  0.000  0.000  0.000  0.000  0.000  0.000    3.77   0.00   0.00      0      3  407.7   0.42   0.39    0.0   0.74    0.43    0.43    0.35    0.16    0.08    0.03    0.01    0.00    0.00    0.00       89      47
 1981 137    46    31    7.6      3  2.005    504    387      0    153    891    904      0     0.0  0.000     13     11  0.000  0.000  0.000  0.000  0.000  0.000  0.000    3.83   0.00   0.01      0     13  397.5   0.45   0.41    0.0   0.76    0.45    0.45    0.36    0.17    0.09    0.04    0.01    0.00    0.00    0.00      115      51
 1981 138    47    32    7.9      3  2.046    530    430      0    160    960    990      0     0.0  0.000     30     21  0.000  0.000  0.000  0.000  0.000  0.000  0.000    3.89   0.00   0.03      0     30  385.9   0.48   0.44    0.0   0.77    0.46    0.46    0.37    0.18    0.10    0.04    0.01    0.00    0.00    0.00      144      54
 1981 139    48    33    8.2      3  2.102    562    476      0    167   1038   1093      0     0.0  0.000     55     30  0.000  0.000  0.000  0.000  0.000  0.000  0.000    3.90   0.00   0.05      0     55  373.9   0.51   0.45    0.0   0.79    0.48    0.48    0.38    0.19    0.10    0.05    0.02    0.00    0.00    0.00      163      57
 1981 140    49    34    8.5      3  2.155    594    523      0    173   1117   1205      0     0.0  0.000     88     40  0.000  0.000  0.000  0.000  0.000  0.000  0.000    3.89   0.00   0.07      0     88  362.8   0.54   0.47    0.0   0.81    0.49    0.49    0.39    0.19    0.11    0.05    0.02    0.00    0.00    0.00      176      61
 1981 141    50    35    8.8      5  2.196    622    569      0    179   1191   1320      0     0.0  0.000    129     50  0.000  0.000  0.000  0.000  0.000  0.000  0.000    3.87   0.00   0.10      0    129  352.9   0.57   0.49    0.0   0.82    0.50    0.50    0.40    0.20    0.11    0.05    0.02    0.00    0.00    0.00      190      65
 1981 142    51    36    9.1      5  2.226    648    614      0    183   1262   1440      0     0.0  0.000    178     61  0.000  0.000  0.000  0.000  0.000  0.000  0.000    3.85   0.00   0.12      0    178  343.4   0.60   0.51    0.0   0.84    0.51    0.51    0.40    0.21    0.12    0.06    0.02    0.00    0.00    0.00      201      68
 1981 143    52    37    9.4      5  2.238    666    650      0    187   1317   1555     11     0.0  0.000    238     72  0.000  0.000  0.000  0.000  0.000  0.000  0.000    3.83   0.00   0.15      0    238  335.9   0.64   0.53    0.0   0.86    0.52    0.52    0.41    0.21    0.12    0.06    0.03    0.00    0.00    0.00      213      72
 1981 144    53    38    9.7      5  2.243    682    684      4    189   1366   1673     38    11.3  0.003    306     83  0.000  0.000  0.000  0.000  0.000  0.000  0.000    3.80   1.40   0.18      0    306  329.0   0.67   0.55    0.0   0.87    0.52    0.52    0.41    0.21    0.12    0.06    0.03    0.00    0.00    0.00      225      76
 1981 145    54    39    9.7      5  2.234    690    710     19    190   1401   1789     69    28.0  0.011    388     94  0.000  0.000  0.000  0.000  0.000  0.000  0.000    3.78   4.96   0.22      0    388  323.6   0.70   0.56    0.0   0.89    0.52    0.52    0.41    0.21    0.13    0.06    0.03    0.00    0.00    0.00      237      80
 1981 146    55    40    9.7      5  2.212    692    728     46    190   1420   1903    101    45.7  0.024    483    106  0.000  0.000  0.000  0.000  0.000  0.000  0.000    3.76   9.57   0.25      0    483  319.6   0.73   0.58    0.0   0.90    0.52    0.52    0.41    0.21    0.13    0.06    0.03    0.00    0.00    0.00      251      84
 1981 147    56    41    9.7      5  2.175    686    735     86    188   1421   2013    135    63.8  0.043    592    117  0.000  0.000  0.000  0.000  0.000  0.000  0.000    3.70  14.51   0.29      0    592  317.2   0.76   0.60    0.0   0.92    0.52    0.52    0.41    0.21    0.13    0.06    0.03    0.00    0.00    0.00      265      88
 1981 148    57    42    9.7      5  2.130    674    736    138    186   1411   2125    169    81.8  0.065    714    128  0.000  0.000  0.000  0.000  0.000  0.000  0.000    3.65  19.35   0.34      0    714  315.8   0.76   0.60    0.0   0.94    0.51    0.51    0.40    0.21    0.12    0.06    0.03    0.00    0.00    0.00      280      91
 1981 149    58    43    9.7      5  2.077    655    725    204    181   1380   2231    205    99.6  0.092    851    140  0.000  0.000  0.000  0.000  0.000  0.000  0.000    3.58  24.01   0.38      0    851  316.8   0.76   0.60    0.0   0.95    0.50    0.50    0.39    0.21    0.12    0.06    0.03    0.00    0.00    0.00      295      95
 1981 150    59    44    9.7      5  2.022    636    712    284    177   1348   2339    242   117.2  0.121    991    149  0.000  0.000  0.000  0.000  0.000  0.000  0.000    3.52  28.66   0.42      0    991  318.1   0.76   0.60    0.0   0.95    0.49    0.49    0.38    0.20    0.12    0.06    0.03    0.00    0.00    0.00      311      99
 1981 151    60    45    9.7      5  1.965    615    700    379    173   1315   2446    282   134.4  0.155   1131    155  0.000  0.000  0.000  0.000  0.000  0.000  0.000    3.44  33.46   0.46      0   1131  319.4   0.76   0.60    0.0   0.95    0.48    0.48    0.38    0.20    0.12    0.06    0.03    0.00    0.00    0.00      328     103
 1981 152    61    46    9.7      5  1.903    593    686    490    169   1280   2546    322   152.2  0.192   1266    160  0.000  0.000  0.000  0.000  0.000  0.000  0.000    3.35  38.69   0.50      0   1266  320.8   0.76   0.60    0.0   0.95    0.47    0.47    0.37    0.19    0.11    0.06    0.03    0.00    0.00    0.00      346     107
 1981 153    62    47    9.7      5  1.839    571    673    616    165   1244   2649    362   170.1  0.232   1405    162  0.000  0.000  0.000  0.000  0.000  0.000  0.000    3.25  43.81   0.53      0   1405  322.3   0.76   0.60    0.0   0.95    0.46    0.46    0.36    0.19    0.11    0.06    0.03    0.00    0.00    0.00      364     110
 1981 154    63    48    9.7      7  1.778    549    661    754    161   1210   2756    402   187.5  0.273   1546    162  0.000  0.000  0.000  0.000  0.000  0.000  0.000    3.15  48.75   0.56      0   1546  323.7   0.76   0.60    0.0   0.97    0.45    0.45    0.35    0.19    0.11    0.05    0.03    0.00    0.00    0.00      382     114
 1981 155    64    49    9.7      7  1.313    404    612    903    157   1016   2690    433   208.7  0.336   1674    159  0.000  0.000  0.000  0.000  0.000  0.000  0.000    2.96  53.96   0.62      0   1674  325.1   0.76   0.60    0.0   0.97    0.44    0.44    0.34    0.18    0.11    0.05    0.03    0.00    0.00    0.00      573     117
 1981 156    65    50    9.7      7  0.970    297    576   1021    154    873   2641    448   228.1  0.387   1768    151  0.000  0.000  0.000  0.000  0.000  0.000  0.000    2.78  57.75   0.67      0   1768  326.5   0.76   0.60    0.0   0.97    0.43    0.43    0.34    0.18    0.11    0.05    0.03    0.00    0.00    0.00      720     120
 1981 157    66    51    9.7      7  0.718    219    548   1112    150    767   2619    448   248.4  0.425   1852    142  0.000  0.000  0.000  0.000  0.000  0.000  0.000    2.61  60.07   0.71      0   1852  327.9   0.76   0.60    0.0   0.97    0.42    0.42    0.33    0.17    0.10    0.05    0.02    0.00    0.00    0.00      817     124
 1981 158    67    52    9.7      7  0.532    162    527   1176    147    688   2597    448   262.6  0.453   1909    130  0.000  0.000  0.000  0.000  0.000  0.000  0.000    2.46  61.61   0.73      0   1909  329.4   0.76   0.60    0.0   0.97    0.41    0.41    0.32    0.17    0.10    0.05    0.02    0.00    0.00    0.00      888     127
 1981 159    68    53    9.7      7  0.395    119    510   1225    143    630   2581    448   273.5  0.475   1951    130  0.000  0.000  0.000  0.000  0.000  0.000  0.000    2.33  62.77   0.76      0   1951  330.8   0.76   0.60    0.0   0.97    0.40    0.40    0.32    0.17    0.10    0.05    0.02    0.00    0.00    0.00      940     130
 1981 160    69    54    9.7      7  0.294     88    497   1261    141    586   2567    448   281.5  0.491   1982    128  0.000  0.000  0.000  0.000  0.000  0.000  0.000    2.22  63.61   0.77      0   1982  332.2   0.76   0.60    0.0   0.97    0.40    0.40    0.31    0.16    0.10    0.05    0.02    0.00    0.00    0.00      979     133
 1981 161    70    55    9.7      7  0.218     65    487   1288    138    552   2556    448   287.6  0.504   2004    128  0.000  0.000  0.000  0.000  0.000  0.000  0.000    2.11  64.28   0.78      0   2004  333.6   0.76   0.60    0.0   0.97    0.39    0.39    0.30    0.16    0.09    0.05    0.02    0.00    0.00    0.00     1008     136
 1981 162    71    56    9.7      7  0.163     49    478   1305    134    527   2544    448   291.5  0.513   2017    128  0.000  0.000  0.000  0.000  0.000  0.000  0.000    2.04  64.71   0.79      0   2017  335.0   0.76   0.60    0.0   0.97    0.38    0.38    0.30    0.16    0.09    0.05    0.02    0.00    0.00    0.00     1029     138
 1981 163    72    57    9.7      8  0.122     36    472   1314    132    509   2532    448   293.5  0.519   2023    128  0.000  0.000  0.000  0.000  0.000  0.000  0.000    2.01  64.95   0.80      0   2023  336.2   0.76   0.60    0.0   0.97    0.37    0.37    0.29    0.15    0.09    0.05    0.02    0.00    0.00    0.00     1045     141

*DSSAT Cropping System Model Ver. 4.6.1.000 -release      JUL 11, 2017; 16:24:44
                                                                                
*RUN   3        : SIM                       CRGRO046 2\000002    1              
 MODEL          : CRGRO046 - Dry bean                                           
 EXPERIMENT     : 2\000002 BN PALMIRA_ANALISIS SENSIBILIDAD                     
 DATA PATH      : D:\B\0\00000                                                  
 TREATMENT  1   : SIM                       CRGRO046                            
  
!                                                                                                                                                                                                                                                    Root Dens. (cm/cm3) by soil depth (cm):
!                                                                                                                                                                                                                                                    0-5    5-15   15-25   25-35   35-50   50-65   65-80   80-99  99-122 122-209
@YEAR DOY   DAS   DAP   L#SD   GSTD   LAID   LWAD   SWAD   GWAD   RWAD   VWAD   CWAD   G#AD    GWGD   HIAD   PWAD   P#AD   WSPD   WSGD   NSTD  PST1A  PST2A   KSTD   EWSD    LN%D   SH%D   HIPD   PWDD   PWTD   SLAD   CHTD   CWID   NWAD   RDPD    RL1D    RL2D    RL3D    RL4D    RL5D    RL6D    RL7D    RL8D    RL9D   RL10D    SNW0C   SNW1C
 1982 106    15     0    0.0      0  0.000      0      0      0      0      0      0      0     0.0  0.000      0      0  0.000  0.000  0.000  0.000  0.000  0.000  0.000    0.00   0.00   0.00      0      0    0.0   0.00   0.00    0.0   0.00    0.00    0.00    0.00    0.00    0.00    0.00    0.00    0.00    0.00    0.00        0       0
 1982 107    16     1    0.0      0  0.000      0      0      0      0      0      0      0     0.0  0.000      0      0  0.000  0.000  0.000  0.000  0.000  0.000  0.000    0.00   0.00   0.00      0      0    0.0   0.00   0.00    0.0   0.00    0.00    0.00    0.00    0.00    0.00    0.00    0.00    0.00    0.00    0.00        0       0
 1982 108    17     2    0.0      0  0.000      0      0      0      0      0      0      0     0.0  0.000      0      0  0.000  0.000  0.000  0.000  0.000  0.000  0.000    0.00   0.00   0.00      0      0    0.0   0.00   0.00    0.0   0.00    0.00    0.00    0.00    0.00    0.00    0.00    0.00    0.00    0.00    0.00        0       0
 1982 109    18     3    0.0      0  0.000      0      0      0      0      0      0      0     0.0  0.000      0      0  0.000  0.000  0.000  0.000  0.000  0.000  0.000    0.00   0.00   0.00      0      0    0.0   0.00   0.00    0.0   0.00    0.00    0.00    0.00    0.00    0.00    0.00    0.00    0.00    0.00    0.00        0       0
 1982 110    19     4    0.0      0  0.000      0      0      0      0      0      0      0     0.0  0.000      0      0  0.000  0.000  0.000  0.000  0.000  0.000  0.000    0.00   0.00   0.00      0      0    0.0   0.00   0.00    0.0   0.00    0.00    0.00    0.00    0.00    0.00    0.00    0.00    0.00    0.00    0.00        0       0
 1982 111    20     5    0.2      0  0.079     31     13      0     43     44     44      0     0.0  0.000      0      0  0.000  0.000  0.000  0.000  0.000  0.000  0.000    3.84   0.00   0.00      0      0  256.8   0.04   0.03    0.0   0.27    0.15    0.15    0.15    0.00    0.00    0.00    0.00    0.00    0.00    0.00        0       1
 1982 112    21     6    0.5      0  0.082     31     14      0     51     45     45      0     0.0  0.000      0      0  0.000  0.000  0.664  0.000  0.000  0.000  0.000    3.78   0.00   0.00      0      0  261.1   0.05   0.03    0.0   0.29    0.18    0.18    0.18    0.01    0.00    0.00    0.00    0.00    0.00    0.00        0       2
 1982 113    22     7    0.8      0  0.084     32     15      0     59     46     46      0     0.0  0.000      0      0  0.000  0.000  0.741  0.000  0.000  0.000  0.000    3.73   0.00   0.00      0      0  264.7   0.06   0.04    0.0   0.31    0.21    0.21    0.20    0.02    0.00    0.00    0.00    0.00    0.00    0.00        0       3
 1982 114    23     8    1.1      0  0.088     32     16      0     67     49     49      0     0.0  0.000      0      0  0.000  0.000  0.543  0.000  0.000  0.000  0.000    3.71   0.00   0.00      0      0  270.2   0.07   0.04    0.0   0.33    0.24    0.24    0.22    0.03    0.00    0.00    0.00    0.00    0.00    0.00        0       4
 1982 115    24     9    1.4      0  0.092     33     18      0     74     51     51      0     0.0  0.000      0      0  0.000  0.000  0.485  0.000  0.000  0.000  0.000    3.69   0.00   0.00      0      0  275.5   0.08   0.05    0.0   0.36    0.26    0.26    0.23    0.04    0.00    0.00    0.00    0.00    0.00    0.00        1       6
 1982 116    25    10    1.7      0  0.097     34     21      0     80     55     55      0     0.0  0.000      0      0  0.000  0.000  0.401  0.000  0.000  0.000  0.000    3.66   0.00   0.00      0      0  283.4   0.09   0.06    0.0   0.38    0.28    0.28    0.25    0.05    0.00    0.00    0.00    0.00    0.00    0.00        1       7
 1982 117    26    11    2.0      0  0.112     38     25      0     83     63     63      0     0.0  0.000      0      0  0.000  0.000  0.118  0.000  0.000  0.000  0.000    3.65   0.00   0.00      0      0  296.9   0.10   0.07    0.0   0.40    0.29    0.29    0.25    0.06    0.00    0.00    0.00    0.00    0.00    0.00        2       9
 1982 118    27    12    2.2      0  0.134     42     28      0     84     70     70      0     0.0  0.000      0      0  0.000  0.000  0.058  0.000  0.000  0.000  0.000    3.60   0.00   0.00      0      0  321.5   0.11   0.07    0.0   0.42    0.29    0.29    0.25    0.06    0.00    0.00    0.00    0.00    0.00    0.00        2      10
 1982 119    28    13    2.5      0  0.160     47     33      0     85     80     80      0     0.0  0.000      0      0  0.000  0.000  0.000  0.000  0.000  0.000  0.000    3.57   0.00   0.00      0      0  339.5   0.12   0.08    0.0   0.44    0.30    0.30    0.25    0.07    0.01    0.00    0.00    0.00    0.00    0.00        2      12
 1982 120    29    14    2.8      0  0.189     54     39      0     87     93     93      0     0.0  0.000      0      0  0.000  0.000  0.000  0.000  0.000  0.000  0.000    3.53   0.00   0.00      0      0  351.7   0.13   0.09    0.0   0.46    0.30    0.30    0.26    0.07    0.01    0.00    0.00    0.00    0.00    0.00        3      14
 1982 121    30    15    3.1      0  0.243     66     42      0     87    108    108      0     0.0  0.000      0      0  0.000  0.000  0.000  0.000  0.000  0.000  0.000    3.53   0.00   0.00      0      0  369.7   0.14   0.10    0.0   0.48    0.30    0.30    0.25    0.07    0.01    0.00    0.00    0.00    0.00    0.00        4      16
 1982 122    31    16    3.4      0  0.298     77     48      0     87    126    126      0     0.0  0.000      0      0  0.000  0.000  0.000  0.000  0.000  0.000  0.000    3.52   0.00   0.00      0      0  384.9   0.15   0.11    0.0   0.50    0.30    0.30    0.26    0.07    0.01    0.00    0.00    0.00    0.00    0.00        4      18
 1982 123    32    17    3.7      0  0.352     90     57      0     89    147    147      0     0.0  0.000      0      0  0.000  0.000  0.000  0.000  0.000  0.000  0.000    3.51   0.00   0.00      0      0  393.1   0.16   0.13    0.0   0.52    0.30    0.30    0.26    0.08    0.02    0.00    0.00    0.00    0.00    0.00        5      19
 1982 124    33    18    4.0      0  0.407    101     69      0     91    171    171      0     0.0  0.000      0      0  0.000  0.000  0.000  0.000  0.000  0.000  0.000    3.51   0.00   0.00      0      0  400.9   0.17   0.15    0.0   0.54    0.31    0.31    0.26    0.08    0.02    0.00    0.00    0.00    0.00    0.00        6      21
 1982 125    34    19    4.3      0  0.464    114     84      0     94    197    197      0     0.0  0.000      0      0  0.000  0.000  0.000  0.000  0.000  0.000  0.000    3.50   0.00   0.00      0      0  409.0   0.18   0.17    0.0   0.56    0.31    0.31    0.26    0.09    0.02    0.00    0.00    0.00    0.00    0.00        7      23
 1982 126    35    20    4.6      0  0.572    138     92      0     94    229    229      0     0.0  0.000      0      0  0.000  0.000  0.000  0.000  0.000  0.000  0.000    3.53   0.00   0.00      0      0  414.7   0.20   0.20    0.0   0.58    0.31    0.31    0.26    0.09    0.03    0.00    0.00    0.00    0.00    0.00        9      25
 1982 127    36    21    4.9      0  0.702    166    101      0     95    267    267      0     0.0  0.000      0      0  0.000  0.000  0.000  0.000  0.000  0.000  0.000    3.55   0.00   0.00      0      0  422.0   0.22   0.22    0.0   0.60    0.32    0.32    0.26    0.09    0.03    0.00    0.00    0.00    0.00    0.00       10      27
 1982 128    37    22    5.2      0  0.831    194    117      0     99    311    311      0     0.0  0.000      0      0  0.000  0.000  0.000  0.000  0.000  0.000  0.000    3.55   0.00   0.00      0      0  428.0   0.23   0.24    0.0   0.62    0.32    0.32    0.27    0.09    0.03    0.01    0.00    0.00    0.00    0.00       12      29
 1982 129    38    23    5.5      0  0.976    226    136      0    102    361    361      0     0.0  0.000      0      0  0.000  0.000  0.000  0.000  0.000  0.000  0.000    3.56   0.00   0.00      0      0  432.6   0.26   0.26    0.0   0.63    0.33    0.33    0.27    0.10    0.04    0.01    0.00    0.00    0.00    0.00       14      31
 1982 130    39    24    5.8      0  1.135    261    158      0    107    419    419      0     0.0  0.000      0      0  0.000  0.000  0.000  0.000  0.000  0.000  0.000    3.56   0.00   0.00      0      0  434.7   0.28   0.29    0.0   0.65    0.34    0.34    0.28    0.11    0.04    0.01    0.00    0.00    0.00    0.00       17      34
 1982 131    40    25    6.1      1  1.318    301    184      0    112    485    485      0     0.0  0.000      0      0  0.000  0.000  0.000  0.000  0.000  0.000  0.000    3.57   0.00   0.00      0      0  437.4   0.30   0.31    0.0   0.67    0.35    0.35    0.29    0.11    0.05    0.02    0.00    0.00    0.00    0.00       20      36
 1982 132    41    26    6.4      1  1.497    345    215      0    119    560    560      0     0.0  0.000      0      0  0.000  0.000  0.000  0.000  0.000  0.000  0.000    3.58   0.00   0.00      0      0  433.5   0.33   0.33    0.0   0.68    0.37    0.37    0.30    0.12    0.06    0.02    0.00    0.00    0.00    0.00       24      38
 1982 133    42    27    6.7      1  1.649    383    248      0    126    631    631      0     0.0  0.000      0      0  0.000  0.000  0.000  0.000  0.000  0.000  0.000    3.63   0.00   0.00      0      0  430.8   0.36   0.35    0.0   0.70    0.38    0.38    0.31    0.13    0.06    0.02    0.00    0.00    0.00    0.00       40      41
 1982 134    43    28    7.0      3  1.782    421    286      0    134    707    707      0     0.0  0.000      0      0  0.000  0.000  0.000  0.000  0.000  0.000  0.000    3.70   0.00   0.00      0      0  423.0   0.39   0.38    0.0   0.72    0.40    0.40    0.33    0.14    0.07    0.03    0.00    0.00    0.00    0.00       59      44
 1982 135    44    29    7.3      3  1.888    458    327      0    142    785    788      0     0.0  0.000      3      4  0.000  0.000  0.000  0.000  0.000  0.000  0.000    3.76   0.00   0.00      0      3  412.6   0.42   0.40    0.0   0.74    0.42    0.42    0.34    0.15    0.08    0.03    0.01    0.00    0.00    0.00       83      47
 1982 136    45    30    7.6      3  1.957    490    369      0    149    859    871      0     0.0  0.000     13     12  0.000  0.000  0.000  0.000  0.000  0.000  0.000    3.83   0.00   0.01      0     13  399.8   0.45   0.42    0.0   0.75    0.44    0.44    0.35    0.16    0.09    0.04    0.01    0.00    0.00    0.00      110      50
 1982 137    46    31    7.9      3  2.004    517    412      0    157    928    957      0     0.0  0.000     29     20  0.000  0.000  0.000  0.000  0.000  0.000  0.000    3.89   0.00   0.03      0     29  387.8   0.48   0.44    0.0   0.77    0.45    0.45    0.36    0.17    0.09    0.04    0.01    0.00    0.00    0.00      139      53
 1982 138    47    32    8.2      3  2.067    545    454      0    163    999   1053      0     0.0  0.000     54     29  0.000  0.000  0.000  0.000  0.000  0.000  0.000    3.90   0.00   0.05      0     54  378.9   0.51   0.46    0.0   0.79    0.47    0.47    0.37    0.18    0.10    0.05    0.01    0.00    0.00    0.00      159      56
 1982 139    48    33    8.5      3  2.124    576    497      0    169   1073   1160      0     0.0  0.000     87     39  0.000  0.000  0.000  0.000  0.000  0.000  0.000    3.89   0.00   0.07      0     87  368.5   0.54   0.48    0.0   0.80    0.48    0.48    0.38    0.19    0.10    0.05    0.02    0.00    0.00    0.00      171      59
 1982 140    49    34    8.8      3  2.166    603    538      0    174   1141   1269      0     0.0  0.000    128     49  0.000  0.000  0.000  0.000  0.000  0.000  0.000    3.87   0.00   0.10      0    128  359.5   0.57   0.50    0.0   0.82    0.49    0.49    0.39    0.19    0.11    0.05    0.02    0.00    0.00    0.00      183      63
 1982 141    50    35    9.1      5  2.191    620    570      0    177   1190   1369      0     0.0  0.000    179     60  0.000  0.000  0.000  0.000  0.000  0.000  0.000    3.85   0.00   0.13      0    179  353.5   0.60   0.52    0.0   0.83    0.50    0.50    0.39    0.20    0.11    0.05    0.02    0.00    0.00    0.00      194      66
 1982 142    51    36    9.3      5  2.214    640    604      0    180   1244   1481     12     0.0  0.000    237     70  0.000  0.000  0.000  0.000  0.000  0.000  0.000    3.82   0.00   0.16      0    237  346.2   0.63   0.53    0.0   0.85    0.50    0.50    0.40    0.20    0.12    0.06    0.02    0.00    0.00    0.00      203      70
 1982 143    52    37    9.6      5  2.224    657    639      5    182   1295   1599     41    11.8  0.003    304     80  0.000  0.000  0.000  0.000  0.000  0.000  0.000    3.80   1.58   0.19      0    304  338.6   0.66   0.55    0.0   0.87    0.51    0.51    0.40    0.21    0.12    0.06    0.03    0.00    0.00    0.00      214      73
 1982 144    53    38    9.6      5  2.221    669    667     21    184   1336   1720     67    30.9  0.012    384     92  0.000  0.000  0.000  0.000  0.000  0.000  0.000    3.78   5.35   0.22      0    384  332.2   0.69   0.57    0.0   0.88    0.51    0.51    0.40    0.21    0.12    0.06    0.03    0.00    0.00    0.00      224      77
 1982 145    54    39    9.6      5  2.195    665    674     47    183   1339   1819     99    47.3  0.026    479    103  0.000  0.000  0.000  0.000  0.000  0.000  0.000    3.74   9.77   0.26      0    479  330.1   0.73   0.58    0.0   0.90    0.50    0.50    0.40    0.21    0.12    0.06    0.03    0.00    0.00    0.00      234      81
 1982 146    55    40    9.6      5  2.163    661    684     86    181   1345   1931    133    64.4  0.044    586    113  0.000  0.000  0.000  0.000  0.000  0.000  0.000    3.69  14.59   0.30      0    586  327.2   0.76   0.60    0.0   0.91    0.50    0.50    0.39    0.20    0.12    0.06    0.03    0.00    0.00    0.00      246      84
 1982 147    56    41    9.6      5  2.120    648    680    138    178   1328   2036    168    82.1  0.068    708    125  0.000  0.000  0.000  0.000  0.000  0.000  0.000    3.64  19.51   0.35      0    708  327.1   0.79   0.60    0.0   0.93    0.49    0.49    0.39    0.20    0.12    0.06    0.03    0.00    0.00    0.00      259      88
 1982 148    57    42    9.6      5  2.072    631    669    204    174   1301   2142    205    99.6  0.095    842    136  0.000  0.000  0.000  0.000  0.000  0.000  0.000    3.58  24.25   0.39      0    842  328.2   0.79   0.60    0.0   0.93    0.48    0.48    0.38    0.20    0.12    0.06    0.03    0.00    0.00    0.00      272      92
 1982 149    58    43    9.6      5  2.021    614    659    284    170   1272   2250    239   119.0  0.126    978    146  0.000  0.000  0.000  0.000  0.000  0.000  0.000    3.52  29.10   0.43      0    978  329.5   0.79   0.60    0.0   0.93    0.47    0.47    0.37    0.19    0.11    0.06    0.03    0.00    0.00    0.00      286      96
 1982 150    59    44    9.6      5  1.968    595    648    377    166   1243   2358    277   136.4  0.160   1115    155  0.000  0.000  0.000  0.000  0.000  0.000  0.000    3.45  33.83   0.47      0   1115  330.7   0.79   0.60    0.0   0.93    0.46    0.46    0.36    0.19    0.11    0.05    0.03    0.00    0.00    0.00      301      99
 1982 151    60    45    9.6      5  1.909    575    636    483    162   1211   2464    316   152.9  0.196   1253    162  0.000  0.000  0.000  0.000  0.000  0.000  0.000    3.36  38.55   0.51      0   1253  332.0   0.79   0.60    0.0   0.95    0.45    0.45    0.36    0.19    0.11    0.05    0.03    0.00    0.00    0.00      318     103
 1982 152    61    46    9.6      5  1.846    554    624    604    158   1178   2568    356   169.9  0.235   1390    165  0.000  0.000  0.000  0.000  0.000  0.000  0.000    3.26  43.47   0.54      0   1390  333.4   0.79   0.60    0.0   0.96    0.44    0.44    0.35    0.18    0.11    0.05    0.02    0.00    0.00    0.00      335     106
 1982 153    62    47    9.6      7  1.783    533    612    741    154   1145   2673    390   189.8  0.277   1528    167  0.000  0.000  0.000  0.000  0.000  0.000  0.000    3.16  48.49   0.57      0   1528  334.8   0.79   0.60    0.0   0.96    0.43    0.43    0.34    0.18    0.10    0.05    0.02    0.00    0.00    0.00      353     110
 1982 154    63    48    9.6      7  1.316    391    566    886    150    957   2600    444   199.3  0.341   1643    161  0.000  0.000  0.000  0.000  0.000  0.000  0.000    2.96  53.90   0.63      0   1643  336.3   0.79   0.60    0.0   0.96    0.42    0.42    0.33    0.17    0.10    0.05    0.02    0.00    0.00    0.00      546     113
 1982 155    64    49    9.6      7  0.973    288    530    993    147    818   2561    444   223.4  0.388   1743    149  0.000  0.000  0.000  0.000  0.000  0.000  0.000    2.78  56.99   0.68      0   1743  337.8   0.79   0.60    0.0   0.96    0.41    0.41    0.33    0.17    0.10    0.05    0.02    0.00    0.00    0.00      673     116
 1982 156    65    50    9.6      7  0.720    212    504   1081    144    716   2540    444   243.3  0.426   1823    140  0.000  0.000  0.000  0.000  0.000  0.000  0.000    2.61  59.31   0.72      0   1823  339.2   0.79   0.60    0.0   0.96    0.40    0.40    0.32    0.17    0.10    0.05    0.02    0.00    0.00    0.00      767     119
 1982 157    66    51    9.6      7  0.534    157    484   1149    140    640   2524    444   258.5  0.455   1884    134  0.000  0.000  0.000  0.000  0.000  0.000  0.000    2.47  60.98   0.75      0   1884  340.6   0.79   0.60    0.0   0.96    0.40    0.40    0.31    0.16    0.10    0.05    0.02    0.00    0.00    0.00      836     122
 1982 158    67    52    9.6      7  0.396    116    469   1199    137    585   2513    444   269.9  0.477   1928    129  0.000  0.000  0.000  0.000  0.000  0.000  0.000    2.33  62.20   0.77      0   1928  341.6   0.79   0.60    0.0   0.96    0.39    0.39    0.31    0.16    0.09    0.05    0.02    0.00    0.00    0.00      887     125
 1982 159    68    53    9.6      7  0.294     86    456   1237    134    542   2501    444   278.3  0.494   1960    127  0.000  0.000  0.000  0.000  0.000  0.000  0.000    2.20  63.11   0.78      0   1960  343.1   0.79   0.60    0.0   0.96    0.38    0.38    0.30    0.16    0.09    0.05    0.02    0.00    0.00    0.00      924     128
 1982 160    69    54    9.6      7  0.219     63    446   1263    131    510   2490    444   284.2  0.507   1980    127  0.000  0.000  0.000  0.000  0.000  0.000  0.000    2.09  63.78   0.80      0   1980  344.6   0.79   0.60    0.0   0.96    0.37    0.37    0.29    0.15    0.09    0.04    0.02    0.00    0.00    0.00      952     131
 1982 161    70    55    9.6      7  0.163     47    439   1280    128    486   2479    444   288.0  0.516   1993    127  0.000  0.000  0.000  0.000  0.000  0.000  0.000    2.03  64.21   0.80      0   1993  345.9   0.79   0.60    0.0   0.96    0.36    0.36    0.29    0.15    0.09    0.04    0.02    0.00    0.00    0.00      973     134
 1982 162    71    56    9.6      8  0.122     35    433   1289    125    468   2468    444   290.1  0.522   2000    127  0.000  0.000  0.000  0.000  0.000  0.000  0.000    1.99  64.47   0.81      0   2000  347.1   0.79   0.60    0.0   0.98    0.36    0.36    0.28    0.15    0.09    0.04    0.02    0.00    0.00    0.00      988     137

*DSSAT Cropping System Model Ver. 4.6.1.000 -release      JUL 11, 2017; 16:24:44
                                                                                
*RUN   4        : SIM                       CRGRO046 2\000002    1              
 MODEL          : CRGRO046 - Dry bean                                           
 EXPERIMENT     : 2\000002 BN PALMIRA_ANALISIS SENSIBILIDAD                     
 DATA PATH      : D:\B\0\00000                                                  
 TREATMENT  1   : SIM                       CRGRO046                            
  
!                                                                                                                                                                                                                                                    Root Dens. (cm/cm3) by soil depth (cm):
!                                                                                                                                                                                                                                                    0-5    5-15   15-25   25-35   35-50   50-65   65-80   80-99  99-122 122-209
@YEAR DOY   DAS   DAP   L#SD   GSTD   LAID   LWAD   SWAD   GWAD   RWAD   VWAD   CWAD   G#AD    GWGD   HIAD   PWAD   P#AD   WSPD   WSGD   NSTD  PST1A  PST2A   KSTD   EWSD    LN%D   SH%D   HIPD   PWDD   PWTD   SLAD   CHTD   CWID   NWAD   RDPD    RL1D    RL2D    RL3D    RL4D    RL5D    RL6D    RL7D    RL8D    RL9D   RL10D    SNW0C   SNW1C
 1983 106    15     0    0.0      0  0.000      0      0      0      0      0      0      0     0.0  0.000      0      0  0.000  0.000  0.000  0.000  0.000  0.000  0.000    0.00   0.00   0.00      0      0    0.0   0.00   0.00    0.0   0.00    0.00    0.00    0.00    0.00    0.00    0.00    0.00    0.00    0.00    0.00        0       0
 1983 107    16     1    0.0      0  0.000      0      0      0      0      0      0      0     0.0  0.000      0      0  0.000  0.000  0.000  0.000  0.000  0.000  0.000    0.00   0.00   0.00      0      0    0.0   0.00   0.00    0.0   0.00    0.00    0.00    0.00    0.00    0.00    0.00    0.00    0.00    0.00    0.00        0       0
 1983 108    17     2    0.0      0  0.000      0      0      0      0      0      0      0     0.0  0.000      0      0  0.000  0.000  0.000  0.000  0.000  0.000  0.000    0.00   0.00   0.00      0      0    0.0   0.00   0.00    0.0   0.00    0.00    0.00    0.00    0.00    0.00    0.00    0.00    0.00    0.00    0.00        0       0
 1983 109    18     3    0.0      0  0.000      0      0      0      0      0      0      0     0.0  0.000      0      0  0.000  0.000  0.000  0.000  0.000  0.000  0.000    0.00   0.00   0.00      0      0    0.0   0.00   0.00    0.0   0.00    0.00    0.00    0.00    0.00    0.00    0.00    0.00    0.00    0.00    0.00        0       0
 1983 110    19     4    0.0      0  0.000      0      0      0      0      0      0      0     0.0  0.000      0      0  0.000  0.000  0.000  0.000  0.000  0.000  0.000    0.00   0.00   0.00      0      0    0.0   0.00   0.00    0.0   0.00    0.00    0.00    0.00    0.00    0.00    0.00    0.00    0.00    0.00    0.00        0       0
 1983 111    20     5    0.2      0  0.079     31     13      0     43     44     44      0     0.0  0.000      0      0  0.000  0.000  0.000  0.000  0.000  0.000  0.000    3.84   0.00   0.00      0      0  256.7   0.04   0.03    0.0   0.27    0.15    0.15    0.15    0.00    0.00    0.00    0.00    0.00    0.00    0.00        0       1
 1983 112    21     6    0.5      0  0.082     31     14      0     51     45     45      0     0.0  0.000      0      0  0.000  0.000  0.654  0.000  0.000  0.000  0.000    3.78   0.00   0.00      0      0  261.7   0.05   0.03    0.0   0.29    0.18    0.18    0.18    0.01    0.00    0.00    0.00    0.00    0.00    0.00        0       2
 1983 113    22     7    0.8      0  0.084     32     15      0     59     46     46      0     0.0  0.000      0      0  0.000  0.000  0.740  0.000  0.000  0.000  0.000    3.72   0.00   0.00      0      0  265.3   0.06   0.04    0.0   0.31    0.21    0.21    0.20    0.02    0.00    0.00    0.00    0.00    0.00    0.00        0       3
 1983 114    23     8    1.1      0  0.087     32     16      0     67     48     48      0     0.0  0.000      0      0  0.000  0.000  0.595  0.000  0.000  0.000  0.000    3.70   0.00   0.00      0      0  271.2   0.07   0.04    0.0   0.33    0.24    0.24    0.22    0.03    0.00    0.00    0.00    0.00    0.00    0.00        0       4
 1983 115    24     9    1.4      0  0.091     33     18      0     74     51     51      0     0.0  0.000      0      0  0.000  0.000  0.487  0.000  0.000  0.000  0.000    3.68   0.00   0.00      0      0  277.5   0.08   0.05    0.0   0.36    0.26    0.26    0.23    0.04    0.00    0.00    0.00    0.00    0.00    0.00        1       6
 1983 116    25    10    1.7      0  0.096     34     21      0     80     55     55      0     0.0  0.000      0      0  0.000  0.000  0.375  0.000  0.000  0.000  0.000    3.66   0.00   0.00      0      0  285.2   0.09   0.06    0.0   0.38    0.28    0.28    0.24    0.05    0.00    0.00    0.00    0.00    0.00    0.00        1       7
 1983 117    26    11    2.0      0  0.112     37     25      0     83     62     62      0     0.0  0.000      0      0  0.000  0.000  0.154  0.000  0.000  0.000  0.000    3.64   0.00   0.00      0      0  301.1   0.10   0.07    0.0   0.40    0.29    0.29    0.25    0.06    0.00    0.00    0.00    0.00    0.00    0.00        2       9
 1983 118    27    12    2.3      0  0.138     42     28      0     84     71     71      0     0.0  0.000      0      0  0.000  0.000  0.040  0.000  0.000  0.000  0.000    3.59   0.00   0.00      0      0  326.2   0.11   0.07    0.0   0.42    0.29    0.29    0.25    0.06    0.00    0.00    0.00    0.00    0.00    0.00        2      11
 1983 119    28    13    2.6      0  0.165     48     33      0     85     81     81      0     0.0  0.000      0      0  0.000  0.000  0.000  0.000  0.000  0.000  0.000    3.56   0.00   0.00      0      0  342.8   0.12   0.08    0.0   0.44    0.30    0.30    0.25    0.07    0.01    0.00    0.00    0.00    0.00    0.00        2      12
 1983 120    29    14    2.9      0  0.197     55     39      0     87     94     94      0     0.0  0.000      0      0  0.000  0.000  0.000  0.000  0.000  0.000  0.000    3.53   0.00   0.00      0      0  358.2   0.13   0.09    0.0   0.46    0.30    0.30    0.26    0.07    0.01    0.00    0.00    0.00    0.00    0.00        3      14
 1983 121    30    15    3.2      0  0.253     67     42      0     87    110    110      0     0.0  0.000      0      0  0.000  0.000  0.000  0.000  0.000  0.000  0.000    3.52   0.00   0.00      0      0  374.7   0.14   0.10    0.0   0.48    0.30    0.30    0.25    0.07    0.01    0.00    0.00    0.00    0.00    0.00        4      16
 1983 122    31    16    3.5      0  0.309     80     49      0     87    129    129      0     0.0  0.000      0      0  0.000  0.000  0.000  0.000  0.000  0.000  0.000    3.51   0.00   0.00      0      0  387.9   0.15   0.12    0.0   0.50    0.30    0.30    0.26    0.07    0.01    0.00    0.00    0.00    0.00    0.00        4      18
 1983 123    32    17    3.8      0  0.364     92     58      0     89    150    150      0     0.0  0.000      0      0  0.000  0.000  0.000  0.000  0.000  0.000  0.000    3.51   0.00   0.00      0      0  395.5   0.16   0.14    0.0   0.52    0.30    0.30    0.26    0.08    0.02    0.00    0.00    0.00    0.00    0.00        5      20
 1983 124    33    18    4.1      0  0.419    103     71      0     91    174    174      0     0.0  0.000      0      0  0.000  0.000  0.000  0.000  0.000  0.000  0.000    3.50   0.00   0.00      0      0  406.0   0.17   0.16    0.0   0.54    0.31    0.31    0.26    0.08    0.02    0.00    0.00    0.00    0.00    0.00        6      22
 1983 125    34    19    4.4      0  0.490    119     83      0     93    203    203      0     0.0  0.000      0      0  0.000  0.000  0.000  0.000  0.000  0.000  0.000    3.51   0.00   0.00      0      0  410.4   0.19   0.18    0.0   0.56    0.31    0.31    0.26    0.09    0.02    0.00    0.00    0.00    0.00    0.00        8      24
 1983 126    35    20    4.7      0  0.605    145     92      0     94    237    237      0     0.0  0.000      0      0  0.000  0.000  0.000  0.000  0.000  0.000  0.000    3.53   0.00   0.00      0      0  416.8   0.20   0.20    0.0   0.58    0.31    0.31    0.26    0.09    0.03    0.00    0.00    0.00    0.00    0.00        9      26
 1983 127    36    21    5.0      0  0.743    174    102      0     96    276    276      0     0.0  0.000      0      0  0.000  0.000  0.000  0.000  0.000  0.000  0.000    3.55   0.00   0.00      0      0  426.2   0.22   0.22    0.0   0.60    0.32    0.32    0.26    0.09    0.03    0.00    0.00    0.00    0.00    0.00       11      28
 1983 128    37    22    5.3      0  0.873    204    120      0     99    323    323      0     0.0  0.000      0      0  0.000  0.000  0.000  0.000  0.000  0.000  0.000    3.55   0.00   0.00      0      0  427.9   0.24   0.25    0.0   0.62    0.32    0.32    0.27    0.10    0.03    0.01    0.00    0.00    0.00    0.00       13      30
 1983 129    38    23    5.6      0  1.024    238    140      0    103    378    378      0     0.0  0.000      0      0  0.000  0.000  0.000  0.000  0.000  0.000  0.000    3.56   0.00   0.00      0      0  430.7   0.26   0.27    0.0   0.64    0.33    0.33    0.28    0.10    0.04    0.01    0.00    0.00    0.00    0.00       15      32
 1983 130    39    24    5.9      0  1.198    276    164      0    108    440    440      0     0.0  0.000      0      0  0.000  0.000  0.000  0.000  0.000  0.000  0.000    3.56   0.00   0.00      0      0  434.2   0.29   0.29    0.0   0.66    0.34    0.34    0.28    0.11    0.04    0.01    0.00    0.00    0.00    0.00       18      34
 1983 131    40    25    6.2      1  1.400    316    191      0    114    508    508      0     0.0  0.000      0      0  0.000  0.000  0.000  0.000  0.000  0.000  0.000    3.56   0.00   0.00      0      0  442.5   0.32   0.32    0.0   0.67    0.36    0.36    0.29    0.12    0.05    0.02    0.00    0.00    0.00    0.00       21      37
 1983 132    41    26    6.5      1  1.558    358    224      0    120    582    582      0     0.0  0.000      0      0  0.000  0.000  0.000  0.000  0.000  0.000  0.000    3.60   0.00   0.00      0      0  434.6   0.35   0.34    0.0   0.69    0.37    0.37    0.30    0.13    0.06    0.02    0.00    0.00    0.00    0.00       30      39
 1983 133    42    27    6.8      1  1.697    397    260      0    128    657    657      0     0.0  0.000      0      0  0.000  0.000  0.000  0.000  0.000  0.000  0.000    3.66   0.00   0.00      0      0  427.1   0.38   0.36    0.0   0.71    0.39    0.39    0.32    0.14    0.06    0.03    0.00    0.00    0.00    0.00       47      42
 1983 134    43    28    7.1      3  1.820    436    300      0    136    736    736      0     0.0  0.000      0      0  0.000  0.000  0.000  0.000  0.000  0.000  0.000    3.72   0.00   0.00      0      0  417.2   0.41   0.39    0.0   0.73    0.41    0.41    0.33    0.15    0.07    0.03    0.00    0.00    0.00    0.00       69      45
 1983 135    44    29    7.4      3  1.923    471    342      0    144    813    816      0     0.0  0.000      3      3  0.000  0.000  0.000  0.000  0.000  0.000  0.000    3.79   0.00   0.00      0      3  408.3   0.44   0.41    0.0   0.74    0.43    0.43    0.34    0.16    0.08    0.04    0.01    0.00    0.00    0.00       94      48
 1983 136    45    30    7.7      3  1.992    502    384      0    152    886    899      0     0.0  0.000     13     12  0.000  0.000  0.000  0.000  0.000  0.000  0.000    3.85   0.00   0.01      0     13  397.3   0.47   0.43    0.0   0.76    0.44    0.44    0.35    0.17    0.09    0.04    0.01    0.00    0.00    0.00      121      51
 1983 137    46    31    8.0      3  2.037    528    428      0    159    956    987      0     0.0  0.000     31     21  0.000  0.000  0.000  0.000  0.000  0.000  0.000    3.91   0.00   0.03      0     31  385.7   0.50   0.45    0.0   0.78    0.46    0.46    0.37    0.18    0.09    0.04    0.01    0.00    0.00    0.00      150      54
 1983 138    47    32    8.3      3  2.107    561    472      0    166   1033   1090      0     0.0  0.000     57     31  0.000  0.000  0.000  0.000  0.000  0.000  0.000    3.90   0.00   0.05      0     57  375.8   0.52   0.47    0.0   0.79    0.47    0.47    0.38    0.18    0.10    0.05    0.02    0.00    0.00    0.00      164      57
 1983 139    48    33    8.6      3  2.162    593    518      0    172   1111   1202      0     0.0  0.000     92     41  0.000  0.000  0.000  0.000  0.000  0.000  0.000    3.89   0.00   0.08      0     92  364.8   0.55   0.49    0.0   0.81    0.49    0.49    0.39    0.19    0.11    0.05    0.02    0.00    0.00    0.00      177      61
 1983 140    49    34    8.9      3  2.201    617    559      0    176   1177   1312      0     0.0  0.000    135     52  0.000  0.000  0.000  0.000  0.000  0.000  0.000    3.87   0.00   0.10      0    135  356.5   0.59   0.51    0.0   0.83    0.50    0.50    0.39    0.20    0.11    0.05    0.02    0.00    0.00    0.00      190      64
 1983 141    50    35    9.2      5  2.232    643    602      0    181   1245   1432      0     0.0  0.000    187     63  0.000  0.000  0.000  0.000  0.000  0.000  0.000    3.85   0.00   0.13      0    187  347.4   0.62   0.52    0.0   0.84    0.50    0.50    0.40    0.20    0.12    0.06    0.02    0.00    0.00    0.00      201      68
 1983 142    51    36    9.5      5  2.248    664    642      0    185   1306   1553     11     0.0  0.000    247     74  0.000  0.000  0.000  0.000  0.000  0.000  0.000    3.83   0.00   0.16      0    247  338.8   0.65   0.54    0.0   0.86    0.51    0.51    0.40    0.21    0.12    0.06    0.03    0.00    0.00    0.00      212      72
 1983 143    52    37    9.8      5  2.254    682    680      4    188   1362   1678     41    10.6  0.003    316     85  0.000  0.000  0.000  0.000  0.000  0.000  0.000    3.80   1.36   0.19      0    316  330.5   0.68   0.56    0.0   0.87    0.52    0.52    0.41    0.21    0.12    0.06    0.03    0.00    0.00    0.00      224      76
 1983 144    53    38    9.8      5  2.245    691    709     20    189   1400   1798     72    27.8  0.011    398     97  0.000  0.000  0.000  0.000  0.000  0.000  0.000    3.77   5.00   0.22      0    398  324.7   0.72   0.57    0.0   0.89    0.52    0.52    0.41    0.21    0.12    0.06    0.03    0.00    0.00    0.00      237      80
 1983 145    54    39    9.8      5  2.225    696    731     47    189   1427   1920    104    45.3  0.025    493    108  0.000  0.000  0.000  0.000  0.000  0.000  0.000    3.76   9.59   0.26      0    493  319.7   0.75   0.59    0.0   0.91    0.52    0.52    0.41    0.21    0.13    0.06    0.03    0.00    0.00    0.00      251      84
 1983 146    55    40    9.8      5  2.189    692    744     87    188   1436   2033    173    50.2  0.043    597    119  0.000  0.000  0.000  0.000  0.000  0.000  0.000    3.71  14.56   0.29      0    597  316.3   0.79   0.60    0.0   0.93    0.51    0.51    0.40    0.21    0.13    0.06    0.03    0.00    0.00    0.00      269      88
 1983 147    56    41    9.8      5  2.140    676    737    154    184   1413   2145    209    73.4  0.072    732    130  0.000  0.000  0.000  0.000  0.000  0.000  0.000    3.65  20.97   0.34      0    732  316.5   0.79   0.60    0.0   0.94    0.50    0.50    0.40    0.21    0.12    0.06    0.03    0.00    0.00    0.00      286      92
 1983 148    57    42    9.8      5  2.088    657    725    235    180   1382   2258    209   112.5  0.104    876    142  0.000  0.000  0.000  0.000  0.000  0.000  0.000    3.59  26.89   0.39      0    876  317.7   0.79   0.60    0.0   0.94    0.49    0.49    0.39    0.20    0.12    0.06    0.03    0.00    0.00    0.00      299      96
 1983 149    58    43    9.8      5  2.032    637    712    317    176   1349   2365    246   128.5  0.134   1016    150  0.000  0.000  0.000  0.000  0.000  0.000  0.000    3.52  31.19   0.43      0   1016  319.0   0.79   0.60    0.0   0.94    0.48    0.48    0.38    0.20    0.12    0.06    0.03    0.00    0.00    0.00      317     100
 1983 150    59    44    9.8      5  1.972    616    699    411    172   1315   2468    325   126.4  0.166   1153    156  0.000  0.000  0.000  0.000  0.000  0.000  0.000    3.44  35.62   0.47      0   1153  320.3   0.79   0.60    0.0   0.96    0.47    0.47    0.37    0.20    0.12    0.06    0.03    0.00    0.00    0.00      340     103
 1983 151    60    45    9.8      5  1.910    594    687    534    168   1281   2581    325   164.4  0.207   1301    161  0.000  0.000  0.000  0.000  0.000  0.000  0.000    3.35  41.08   0.50      0   1301  321.5   0.79   0.60    0.0   0.98    0.46    0.46    0.36    0.19    0.11    0.06    0.03    0.00    0.00    0.00      356     107
[...]
!                                                                                                                                                                                                                                                    0-5    5-15   15-25   25-35   35-50   50-65   65-80   80-99  99-122 122-209
@YEAR DOY   DAS   DAP   L#SD   GSTD   LAID   LWAD   SWAD   GWAD   RWAD   VWAD   CWAD   G#AD    GWGD   HIAD   PWAD   P#AD   WSPD   WSGD   NSTD  PST1A  PST2A   KSTD   EWSD    LN%D   SH%D   HIPD   PWDD   PWTD   SLAD   CHTD   CWID   NWAD   RDPD    RL1D    RL2D    RL3D    RL4D    RL5D    RL6D    RL7D    RL8D    RL9D   RL10D    SNW0C   SNW1C
 2011 106    15     0    0.0      0  0.000      0      0      0      0      0      0      0     0.0  0.000      0      0  0.000  0.000  0.000  0.000  0.000  0.000  0.000    0.00   0.00   0.00      0      0    0.0   0.00   0.00    0.0   0.00    0.00    0.00    0.00    0.00    0.00    0.00    0.00    0.00    0.00    0.00        0       0
 2011 107    16     1    0.0      0  0.000      0      0      0      0      0      0      0     0.0  0.000      0      0  0.000  0.000  0.000  0.000  0.000  0.000  0.000    0.00   0.00   0.00      0      0    0.0   0.00   0.00    0.0   0.00    0.00    0.00    0.00    0.00    0.00    0.00    0.00    0.00    0.00    0.00        0       0
 2011 108    17     2    0.0      0  0.000      0      0      0      0      0      0      0     0.0  0.000      0      0  0.000  0.000  0.000  0.000  0.000  0.000  0.000    0.00   0.00   0.00      0      0    0.0   0.00   0.00    0.0   0.00    0.00    0.00    0.00    0.00    0.00    0.00    0.00    0.00    0.00    0.00        0       0
 2011 109    18     3    0.0      0  0.000      0      0      0      0      0      0      0     0.0  0.000      0      0  0.000  0.000  0.000  0.000  0.000  0.000  0.000    0.00   0.00   0.00      0      0    0.0   0.00   0.00    0.0   0.00    0.00    0.00    0.00    0.00    0.00    0.00    0.00    0.00    0.00    0.00        0       0
 2011 110    19     4    0.0      0  0.000      0      0      0      0      0      0      0     0.0  0.000      0      0  0.000  0.000  0.000  0.000  0.000  0.000  0.000    0.00   0.00   0.00      0      0    0.0   0.00   0.00    0.0   0.00    0.00    0.00    0.00    0.00    0.00    0.00    0.00    0.00    0.00    0.00        0       0
 2011 111    20     5    0.2      0  0.079     31     13      0     43     44     44      0     0.0  0.000      0      0  0.000  0.000  0.000  0.000  0.000  0.000  0.000    3.84   0.00   0.00      0      0  256.7   0.04   0.03    0.0   0.27    0.15    0.15    0.15    0.00    0.00    0.00    0.00    0.00    0.00    0.00        0       1
 2011 112    21     6    0.5      0  0.082     31     14      0     51     45     45      0     0.0  0.000      0      0  0.000  0.000  0.674  0.000  0.000  0.000  0.000    3.78   0.00   0.00      0      0  261.2   0.05   0.03    0.0   0.29    0.19    0.19    0.18    0.01    0.00    0.00    0.00    0.00    0.00    0.00        0       2
 2011 113    22     7    0.8      0  0.084     32     15      0     60     47     47      0     0.0  0.000      0      0  0.000  0.000  0.703  0.000  0.000  0.000  0.000    3.73   0.00   0.00      0      0  264.8   0.06   0.04    0.0   0.31    0.22    0.22    0.20    0.02    0.00    0.00    0.00    0.00    0.00    0.00        0       3
 2011 114    23     8    1.1      0  0.088     32     16      0     68     49     49      0     0.0  0.000      0      0  0.000  0.000  0.555  0.000  0.000  0.000  0.000    3.71   0.00   0.00      0      0  270.3   0.07   0.04    0.0   0.33    0.24    0.24    0.22    0.03    0.00    0.00    0.00    0.00    0.00    0.00        0       4
 2011 115    24     9    1.4      0  0.092     33     19      0     76     52     52      0     0.0  0.000      0      0  0.000  0.000  0.476  0.000  0.000  0.000  0.000    3.68   0.00   0.00      0      0  277.1   0.08   0.05    0.0   0.36    0.27    0.27    0.24    0.05    0.00    0.00    0.00    0.00    0.00    0.00        1       6
 2011 116    25    10    1.7      0  0.098     34     22      0     82     57     57      0     0.0  0.000      0      0  0.000  0.000  0.298  0.000  0.000  0.000  0.000    3.66   0.00   0.00      0      0  284.0   0.09   0.06    0.0   0.38    0.29    0.29    0.25    0.06    0.00    0.00    0.00    0.00    0.00    0.00        1       7
 2011 117    26    11    2.0      0  0.113     38     27      0     85     64     64      0     0.0  0.000      0      0  0.000  0.000  0.146  0.000  0.000  0.000  0.000    3.63   0.00   0.00      0      0  299.9   0.10   0.07    0.0   0.40    0.30    0.30    0.26    0.06    0.00    0.00    0.00    0.00    0.00    0.00        2       9
 2011 118    27    12    2.3      0  0.140     44     31      0     86     74     74      0     0.0  0.000      0      0  0.000  0.000  0.000  0.000  0.000  0.000  0.000    3.58   0.00   0.00      0      0  320.4   0.11   0.07    0.0   0.42    0.30    0.30    0.26    0.07    0.00    0.00    0.00    0.00    0.00    0.00        2      11
 2011 119    28    13    2.6      0  0.167     50     37      0     88     86     86      0     0.0  0.000      0      0  0.000  0.000  0.000  0.000  0.000  0.000  0.000    3.54   0.00   0.00      0      0  336.3   0.12   0.08    0.0   0.44    0.30    0.30    0.26    0.07    0.01    0.00    0.00    0.00    0.00    0.00        3      13
 2011 120    29    14    2.9      0  0.201     57     43      0     89    100    100      0     0.0  0.000      0      0  0.000  0.000  0.000  0.000  0.000  0.000  0.000    3.52   0.00   0.00      0      0  352.3   0.13   0.09    0.0   0.46    0.31    0.31    0.26    0.07    0.01    0.00    0.00    0.00    0.00    0.00        3      15
 2011 121    30    15    3.2      0  0.259     70     47      0     89    117    117      0     0.0  0.000      0      0  0.000  0.000  0.000  0.000  0.000  0.000  0.000    3.52   0.00   0.00      0      0  369.2   0.14   0.10    0.0   0.48    0.31    0.31    0.26    0.08    0.01    0.00    0.00    0.00    0.00    0.00        4      16
 2011 122    31    16    3.5      0  0.314     83     55      0     91    138    138      0     0.0  0.000      0      0  0.000  0.000  0.000  0.000  0.000  0.000  0.000    3.52   0.00   0.00      0      0  377.3   0.15   0.12    0.0   0.50    0.31    0.31    0.26    0.08    0.01    0.00    0.00    0.00    0.00    0.00        5      18
 2011 123    32    17    3.8      0  0.369     93     66      0     93    159    159      0     0.0  0.000      0      0  0.000  0.000  0.000  0.000  0.000  0.000  0.000    3.50   0.00   0.00      0      0  395.9   0.16   0.14    0.0   0.53    0.31    0.31    0.27    0.08    0.02    0.00    0.00    0.00    0.00    0.00        5      20
 2011 124    33    18    4.1      0  0.423    105     80      0     96    185    185      0     0.0  0.000      0      0  0.000  0.000  0.000  0.000  0.000  0.000  0.000    3.50   0.00   0.00      0      0  403.4   0.17   0.16    0.0   0.55    0.32    0.32    0.27    0.09    0.02    0.00    0.00    0.00    0.00    0.00        7      22
 2011 125    34    19    4.4      0  0.498    122     94      0     98    215    215      0     0.0  0.000      0      0  0.000  0.000  0.000  0.000  0.000  0.000  0.000    3.51   0.00   0.00      0      0  409.2   0.19   0.18    0.0   0.56    0.33    0.33    0.27    0.09    0.03    0.00    0.00    0.00    0.00    0.00        8      24
 2011 126    35    20    4.7      0  0.619    150    103      0     99    252    252      0     0.0  0.000      0      0  0.000  0.000  0.000  0.000  0.000  0.000  0.000    3.54   0.00   0.00      0      0  413.4   0.20   0.20    0.0   0.58    0.33    0.33    0.27    0.09    0.03    0.00    0.00    0.00    0.00    0.00        9      27
 2011 127    36    21    5.0      0  0.758    180    116      0    101    296    296      0     0.0  0.000      0      0  0.000  0.000  0.000  0.000  0.000  0.000  0.000    3.55   0.00   0.00      0      0  422.0   0.22   0.23    0.0   0.60    0.33    0.33    0.28    0.10    0.03    0.00    0.00    0.00    0.00    0.00       11      29
 2011 128    37    22    5.3      0  0.902    212    135      0    105    346    346      0     0.0  0.000      0      0  0.000  0.000  0.000  0.000  0.000  0.000  0.000    3.56   0.00   0.00      0      0  426.1   0.24   0.25    0.0   0.62    0.34    0.34    0.28    0.10    0.04    0.01    0.00    0.00    0.00    0.00       13      31
 2011 129    38    23    5.6      0  1.067    249    157      0    109    406    406      0     0.0  0.000      0      0  0.000  0.000  0.000  0.000  0.000  0.000  0.000    3.57   0.00   0.00      0      0  429.0   0.26   0.27    0.0   0.64    0.35    0.35    0.29    0.11    0.04    0.01    0.00    0.00    0.00    0.00       15      33
 2011 130    39    24    5.9      0  1.245    291    183      0    115    474    474      0     0.0  0.000      0      0  0.000  0.000  0.000  0.000  0.000  0.000  0.000    3.57   0.00   0.00      0      0  428.1   0.29   0.29    0.0   0.66    0.36    0.36    0.30    0.12    0.05    0.01    0.00    0.00    0.00    0.00       18      36
 2011 131    40    25    6.2      1  1.459    336    214      0    121    550    550      0     0.0  0.000      0      0  0.000  0.000  0.000  0.000  0.000  0.000  0.000    3.57   0.00   0.00      0      0  433.7   0.32   0.32    0.0   0.68    0.38    0.38    0.31    0.13    0.06    0.02    0.00    0.00    0.00    0.00       22      38
 2011 132    41    26    6.5      1  1.645    382    249      0    129    631    631      0     0.0  0.000      0      0  0.000  0.000  0.000  0.000  0.000  0.000  0.000    3.61   0.00   0.00      0      0  430.8   0.35   0.34    0.0   0.69    0.40    0.40    0.32    0.14    0.06    0.02    0.00    0.00    0.00    0.00       33      41
 2011 133    42    27    6.8      1  1.804    424    288      0    137    712    712      0     0.0  0.000      0      0  0.000  0.000  0.000  0.000  0.000  0.000  0.000    3.67   0.00   0.00      0      0  425.5   0.38   0.36    0.0   0.71    0.41    0.41    0.33    0.15    0.07    0.03    0.00    0.00    0.00    0.00       51      44
 2011 134    43    28    7.1      3  1.949    463    328      0    145    791    791      0     0.0  0.000      0      0  0.000  0.000  0.000  0.000  0.000  0.000  0.000    3.73   0.00   0.00      0      0  421.3   0.41   0.39    0.0   0.73    0.43    0.43    0.35    0.16    0.08    0.03    0.01    0.00    0.00    0.00       72      46
 2011 135    44    29    7.4      3  2.064    504    375      0    154    879    882      0     0.0  0.000      3      4  0.000  0.000  0.000  0.000  0.000  0.000  0.000    3.79   0.00   0.00      0      3  409.8   0.43   0.40    0.0   0.74    0.45    0.45    0.36    0.17    0.09    0.04    0.01    0.00    0.00    0.00       97      49
 2011 136    45    30    7.7      3  2.144    538    423      0    163    961    976      0     0.0  0.000     14     13  0.000  0.000  0.000  0.000  0.000  0.000  0.000    3.86   0.00   0.01      0     14  398.1   0.46   0.43    0.0   0.76    0.47    0.47    0.38    0.18    0.10    0.04    0.01    0.00    0.00    0.00      127      53
 2011 137    46    31    8.0      3  2.192    568    471      0    172   1039   1073      0     0.0  0.000     34     24  0.000  0.000  0.000  0.000  0.000  0.000  0.000    3.92   0.00   0.03      0     34  385.9   0.49   0.45    0.0   0.78    0.49    0.49    0.39    0.19    0.10    0.05    0.01    0.00    0.00    0.00      160      56
 2011 138    47    32    8.3      3  2.265    607    523      0    179   1130   1192      0     0.0  0.000     62     34  0.000  0.000  0.000  0.000  0.000  0.000  0.000    3.92   0.00   0.05      0     62  373.1   0.52   0.47    0.0   0.79    0.51    0.51    0.40    0.20    0.11    0.05    0.02    0.00    0.00    0.00      177      60
 2011 139    48    33    8.6      3  2.326    641    574      0    186   1215   1315      0     0.0  0.000    100     45  0.000  0.000  0.000  0.000  0.000  0.000  0.000    3.91   0.00   0.08      0    100  362.6   0.55   0.48    0.0   0.81    0.52    0.52    0.41    0.21    0.12    0.06    0.02    0.00    0.00    0.00      192      63
 2011 140    49    34    8.9      3  2.371    675    625      0    193   1300   1446      0     0.0  0.000    146     57  0.000  0.000  0.000  0.000  0.000  0.000  0.000    3.90   0.00   0.10      0    146  351.3   0.58   0.50    0.0   0.82    0.54    0.54    0.42    0.22    0.12    0.06    0.02    0.00    0.00    0.00      206      67
 2011 141    50    35    9.2      5  2.400    703    673      0    198   1376   1579      0     0.0  0.000    203     69  0.000  0.000  0.000  0.000  0.000  0.000  0.000    3.88   0.00   0.13      0    203  341.7   0.61   0.52    0.0   0.84    0.55    0.55    0.43    0.22    0.13    0.06    0.03    0.00    0.00    0.00      220      71
 2011 142    51    36    9.4      5  2.419    726    718      0    202   1443   1713     13     0.0  0.000    270     82  0.000  0.000  0.000  0.000  0.000  0.000  0.000    3.86   0.00   0.16      0    270  333.4   0.64   0.54    0.0   0.86    0.56    0.56    0.44    0.23    0.13    0.07    0.03    0.00    0.00    0.00      233      75
 2011 143    52    37    9.7      5  2.428    746    760      5    206   1506   1851     44    10.8  0.003    345     94  0.000  0.000  0.000  0.000  0.000  0.000  0.000    3.83   1.39   0.19      0    345  325.3   0.68   0.55    0.0   0.87    0.56    0.56    0.44    0.23    0.14    0.07    0.03    0.00    0.00    0.00      247      80
 2011 144    53    38    9.7      5  2.426    762    798     21    208   1559   1992     78    27.4  0.011    432    107  0.000  0.000  0.000  0.000  0.000  0.000  0.000    3.81   4.95   0.22      0    432  318.5   0.71   0.57    0.0   0.89    0.57    0.57    0.45    0.24    0.14    0.07    0.03    0.00    0.00    0.00      262      84
 2011 145    54    39    9.7      5  2.407    767    823     51    209   1591   2126    113    45.1  0.024    535    119  0.000  0.000  0.000  0.000  0.000  0.000  0.000    3.79   9.56   0.25      0    535  313.6   0.74   0.59    0.0   0.91    0.57    0.57    0.44    0.24    0.14    0.07    0.03    0.00    0.00    0.00      279      89
 2011 146    55    40    9.7      5  2.372    765    841     94    208   1606   2257    149    62.9  0.042    651    131  0.000  0.000  0.000  0.000  0.000  0.000  0.000    3.74  14.42   0.29      0    651  309.9   0.78   0.60    0.0   0.92    0.56    0.56    0.44    0.24    0.14    0.07    0.04    0.00    0.00    0.00      296      93
 2011 147    56    41    9.7      5  2.323    755    847    150    206   1602   2383    188    80.0  0.063    781    143  0.000  0.000  0.000  0.000  0.000  0.000  0.000    3.68  19.24   0.33      0    781  307.7   0.78   0.60    0.0   0.94    0.56    0.56    0.44    0.24    0.14    0.07    0.04    0.00    0.00    0.00      316      98
 2011 148    57    42    9.7      5  2.267    737    840    223    202   1577   2506    227    97.9  0.089    929    156  0.000  0.000  0.000  0.000  0.000  0.000  0.000    3.62  23.97   0.37      0    929  307.6   0.78   0.60    0.0   0.96    0.55    0.55    0.43    0.23    0.14    0.07    0.04    0.00    0.00    0.00      336     102
 2011 149    58    43    9.7      5  2.206    714    825    310    197   1539   2625    269   115.4  0.118   1086    168  0.000  0.000  0.000  0.000  0.000  0.000  0.000    3.55  28.58   0.41      0   1086  308.9   0.78   0.60    0.0   0.96    0.54    0.54    0.42    0.23    0.14    0.07    0.03    0.00    0.00    0.00      357     106
 2011 150    59    44    9.7      5  2.142    690    810    413    192   1500   2741    355   116.4  0.151   1240    177  0.000  0.000  0.000  0.000  0.000  0.000  0.000    3.47  33.30   0.45      0   1240  310.2   0.78   0.60    0.0   0.97    0.53    0.53    0.41    0.22    0.13    0.07    0.03    0.00    0.00    0.00      384     111
 2011 151    60    45    9.7      5  2.075    666    795    548    188   1461   2864    397   138.0  0.191   1402    184  0.000  0.000  0.000  0.000  0.000  0.000  0.000    3.39  39.06   0.49      0   1402  311.4   0.78   0.60    0.0   0.99    0.51    0.51    0.40    0.22    0.13    0.07    0.03    0.00    0.00    0.00      406     115
 2011 152    61    46    9.7      5  2.002    640    779    703    183   1419   2978    440   159.6  0.236   1559    188  0.000  0.000  0.000  0.000  0.000  0.000  0.000    3.28  45.09   0.52      0   1559  312.9   0.78   0.60    0.0   0.99    0.50    0.50    0.39    0.21    0.13    0.06    0.03    0.00    0.00    0.00      429     119
 2011 153    62    47    9.7      7  1.936    616    766    857    179   1382   3085    440   194.6  0.278   1703    191  0.000  0.000  0.000  0.000  0.000  0.000  0.000    3.18  50.33   0.55      0   1703  314.1   0.78   0.60    0.0   0.99    0.49    0.49    0.39    0.21    0.12    0.06    0.03    0.00    0.00    0.00      447     122
 2011 154    63    48    9.7      7  1.429    453    711   1019    175   1163   3003    471   216.2  0.339   1839    187  0.000  0.000  0.000  0.000  0.000  0.000  0.000    2.99  55.40   0.61      0   1839  315.6   0.78   0.60    0.0   0.99    0.48    0.48    0.38    0.20    0.12    0.06    0.03    0.00    0.00    0.00      663     126
 2011 155    64    49    9.7      7  1.056    333    669   1142    171   1002   2938    490   233.0  0.389   1936    179  0.000  0.000  0.000  0.000  0.000  0.000  0.000    2.82  58.98   0.66      0   1936  317.1   0.78   0.60    0.0   0.99    0.47    0.47    0.37    0.20    0.12    0.06    0.03    0.00    0.00    0.00      828     130
 2011 156    65    50    9.7      7  0.782    246    639   1248    167    884   2910    496   251.3  0.429   2026    168  0.000  0.000  0.000  0.000  0.000  0.000  0.000    2.65  61.60   0.70      0   2026  318.3   0.78   0.60    0.0   0.99    0.46    0.46    0.36    0.20    0.12    0.06    0.03    0.00    0.00    0.00      946     133
 2011 157    66    51    9.7      7  0.579    182    616   1328    163    798   2897    496   267.4  0.458   2099    158  0.000  0.000  0.000  0.000  0.000  0.000  0.000    2.49  63.26   0.72      0   2099  319.0   0.78   0.60    0.0   0.99    0.45    0.45    0.35    0.19    0.11    0.06    0.03    0.00    0.00    0.00     1025     137
 2011 158    67    52    9.7      7  0.430    134    597   1389    159    731   2885    496   279.7  0.481   2154    150  0.000  0.000  0.000  0.000  0.000  0.000  0.000    2.35  64.48   0.75      0   2154  320.4   0.78   0.60    0.0   0.99    0.44    0.44    0.35    0.19    0.11    0.06    0.03    0.00    0.00    0.00     1084     141
 2011 159    68    53    9.7      7  0.319     99    583   1433    156    682   2875    496   288.7  0.499   2193    145  0.000  0.000  0.000  0.000  0.000  0.000  0.000    2.22  65.37   0.76      0   2193  321.6   0.78   0.60    0.0   0.99    0.43    0.43    0.34    0.18    0.11    0.06    0.03    0.00    0.00    0.00     1128     144
 2011 160    69    54    9.7      7  0.237     74    571   1465    152    645   2864    496   295.1  0.512   2219    142  0.000  0.000  0.000  0.000  0.000  0.000  0.000    2.10  66.03   0.77      0   2219  322.7   0.78   0.60    0.0   0.99    0.42    0.42    0.33    0.18    0.11    0.05    0.03    0.00    0.00    0.00     1160     147
 2011 161    70    55    9.7      7  0.177     55    563   1485    149    617   2852    496   299.2  0.521   2235    142  0.000  0.000  0.000  0.000  0.000  0.000  0.000    2.02  66.46   0.78      0   2235  323.7   0.78   0.60    0.0   1.01    0.41    0.41    0.32    0.17    0.10    0.05    0.03    0.00    0.00    0.00     1184     151
 2011 162    71    56    9.7      8  0.132     41    556   1497    145    596   2840    496   301.6  0.527   2244    142  0.000  0.000  0.000  0.000  0.000  0.000  0.000    1.97  66.73   0.79      0   2244  324.9   0.78   0.60    0.0   1.01    0.41    0.41    0.32    0.17    0.10    0.05    0.03    0.00    0.00    0.00     1202     154
