*SIMULATION OVERVIEW FILE

*DSSAT Cropping System Model Ver. 4.6.1.000 -release      JUL 11, 2017; 16:24:43
                                                                                
*RUN   1        : SIM                       CRGRO046 1\000001    1              
 MODEL          : CRGRO046 - Dry bean                                           
 EXPERIMENT     : 1\000001 BN PALMIRA_ANALISIS SENSIBILIDAD                     
 DATA PATH      : D:\B\0\00000                                                  
 TREATMENT  1   : SIM                       CRGRO046                            
                                                                                
                                                                                
 CROP           : Dry bean         CULTIVAR : Jatu Rong        ECOTYPE :ANDIND  
 STARTING DATE  : APR  1 1980                                                   
 PLANTING DATE  : AUTOMATIC PLANTING PLANTS/m2 : 26.6     ROW SPACING :  60.cm  
 WEATHER        : PALM   1980                                                   
 SOIL           : CCPA000030     TEXTURE : C     -   Silty Clay Loam            
 WATER BALANCE  : NOT SIMULATED ; NO H2O-STRESS                                 
 IRRIGATION     :                                                               
 NITROGEN BAL.  : NOT SIMULATED ; NO N-STRESS                                   
 N-FERTILIZER   :                                                               
 RESIDUE/MANURE :                                                               
 ENVIRONM. OPT. : DAYL=    0.00  SRAD=    0.00  TMAX=    0.00  TMIN=    0.00    
                  RAIN=    0.00  CO2 =    0.00  DEW =    0.00  WIND=    0.00    
 SIMULATION OPT : WATER   :N  NITROGEN:N  N-FIX:N  PHOSPH :N  PESTS  :N         
                  PHOTO   :L  ET      :R  INFIL:S  HYDROL :R  SOM    :G         
                  CO2 338ppm  NSWIT   :1  EVAP :S  SOIL   :2  STEMP  :D         
 MANAGEMENT OPT : PLANTING:A  IRRIG   :A  FERT :D  RESIDUE:N  HARVEST:M         
                  WEATHER :M  TILLAGE :N                                        
                                                                                
*SUMMARY OF SOIL AND GENETIC INPUT PARAMETERS                                   
                                                                                
 Dry bean   CULTIVAR :000001-Jatu Rong          ECOTYPE :ANDIND                 
 CSDVAR :12.17  PPSEN  : 0.05  EMG-FLW:18.00  FLW-FSD: 9.00  FSD-PHM : 11.00    
 WTPSD  :0.600  SDPDVR : 3.50  SDFDUR :15.00  PODDUR :10.00  XFRUIT  :  1.00    
 THRESH : 78.0  SDPRO  :0.235  SDLIP   : 0.030                                  


*SIMULATED CROP AND SOIL STATUS AT MAIN DEVELOPMENT STAGES

 RUN NO.     1     SIM                     

        CROP GROWTH     BIOMASS         LEAF   CROP N     STRESS      STRESS                                           
   DATE  AGE STAGE        kg/ha    LAI   NUM  kg/ha  %   H2O  Nitr Phos1 Phos2  RSTG                                   
 ------  --- ----------   -----  -----  ----  ---  ---  ----  ----  ----  ----  ----                                   
  1 APR    0 Start Sim        0   0.00   0.0    0  0.0  0.00  0.00  0.00  0.00     0
 15 APR    0 Sowing           0   0.00   0.0    0  0.0  0.00  0.00  0.00  0.00     0
 20 APR    5 Emergence       44   0.08   0.2    1  3.4  0.00  0.00  0.00  0.00     0
 20 APR    5 End Juven.      44   0.08   0.2    1  3.4  0.00  0.00  0.00  0.00     0
 23 APR    8 Unifoliate      49   0.09   1.1    2  3.3  0.00  0.64  0.00  0.00     0
 25 APR   10 Flower Ind      56   0.10   1.7    2  3.2  0.00  0.41  0.00  0.00     0
  9 MAY   24 First Flwr     442   1.17   5.9   14  3.1  0.00  0.01  0.00  0.00     1
 12 MAY   27 First Pod      662   1.61   6.8   20  3.1  0.00  0.00  0.00  0.00     3
 19 MAY   34 First Seed    1281   2.00   8.8   39  3.1  0.00  0.00  0.00  0.00     5
 21 MAY   36 End Msnode    1504   2.02   9.5   46  3.0  0.00  0.00  0.00  0.00     5
 25 MAY   40 End Pod       1940   1.92   9.5   58  3.0  0.00  0.00  0.00  0.00     5
 28 MAY   43 End Leaf      2243   1.77   9.5   66  2.9  0.00  0.00  0.00  0.00     5
 31 MAY   46 Phys. Mat     2531   1.60   9.5   73  2.9  0.00  0.00  0.00  0.00     7
  9 JUN   55 Harv. Mat     2344   0.11   9.5   67  2.9  0.00  0.00  0.00  0.00     8
  9 JUN   55 Harvest       2344   0.11   9.5   67  2.9  0.00  0.00  0.00  0.00     8


*MAIN GROWTH AND DEVELOPMENT VARIABLES

@     VARIABLE                                         SIMULATED     MEASURED
      --------                                         ---------     --------
      Anthesis day (dap)                                      24          -99
      First pod day (dap)                                     27          -99
      First seed day (dap)                                    34          -99
      Physiological maturity day (dap)                        46          -99
      Yield at harvest maturity (kg [dm]/ha)                1279          -99
      Pod/Ear/Panicle weight at maturity (kg [dm]/ha)       1888          -99
      Number at maturity (no/m2)                             395          -99
      Unit wt at maturity (g [dm]/unit)                   0.3235          -99
      Number at maturity (no/unit)                          3.50          -99
      Tops weight at maturity (kg [dm]/ha)                  2344          -99
      By-product produced (stalk) at maturity (kg[dm]/ha    1060          -99
      Leaf area index, maximum                              2.02          -99
      Harvest index at maturity                            0.546          -99
      Threshing % at maturity                              67.71          -99
      Grain N at maturity (kg/ha)                             48          -99
      Tops N at maturity (kg/ha)                              67          -99
      Stem N at maturity (kg/ha)                               5          -99
      Grain N at maturity (%)                               3.76          -99
      Tops weight at anthesis (kg [dm]/ha)                   442          -99
      Tops N at anthesis (kg/ha)                              14          -99
      Leaf number per stem at maturity                      9.45          -99
      Grain oil at maturity (%)                             2.90          -99
      Canopy height (m)                                     0.74          -99
      Harvest maturity day (dap)                              55          -99
      Emergence day (dap)                                      5          -99


*ENVIRONMENTAL AND STRESS FACTORS

 |-----Development Phase------|--------------------------------------Environment--------------------------------------|-----------------Stress-----------------|
                              |---------------Average--------------|-----Cumulative-----|--------Count of days--------|          (0=Min, 1=Max Stress)         |
                         Time  Temp  Temp  Temp Solar Photop                Evapo    Pot TMIN TMIN TMAX TMAX TMAX RAIN|----Water----|---Nitrogen--|-Phosphorus-|
                         Span   Max   Min  Mean   Rad  [day]    CO2   Rain  Trans     ET   <    <    >    >    >    >   Photo         Photo         Photo
                         days    øC    øC    øC MJ/m2     hr    ppm     mm     mm     mm  0øC  2øC 30øC 32øC 34øC  0mm  synth Growth  synth Growth  synth Growth
----------------------------------------------------------------------------------------------------------------------------------------------------------------
 Emergence -First Flower   19  29.8  19.3  24.6  18.9  12.12  338.3   36.8    0.0    0.0    0    0    9    1    0    9  0.000  0.000  0.000  0.156  0.000  0.000
 First Flower-First Seed   10  29.6  19.7  24.6  17.9  12.16  338.4   20.5    0.0    0.0    0    0    5    1    0    5  0.000  0.000  0.000  0.000  0.000  0.000
 First Seed - Phys. Mat.   12  29.9  19.7  24.8  18.1  12.18  338.5   32.8    0.0    0.0    0    0    6    0    0    4  0.000  0.000  0.000  0.000  0.000  0.000
 Emergence  - Phys. Mat.   41  29.8  19.5  24.7  18.4  12.15  338.4   90.1    0.0    0.0    0    0   20    2    0   18  0.000  0.000  0.000  0.072  0.000  0.000


 Planting to Harvest       69  29.7  19.4  24.5  18.6  12.13  338.4  138.0    0.0    0.0    0    0   35    2    0   26  0.000  0.000  0.000  0.043  0.000  0.000
----------------------------------------------------------------------------------------------------------------------------------------------------------------

--------------------------------------------------------------------------------------------------------------

                  Dry bean YIELD :     1279 kg/ha    [Dry weight] 

**************************************************************************************************************

*DSSAT Cropping System Model Ver. 4.6.1.000 -release      JUL 11, 2017; 16:24:43
                                                                                
*RUN   2        : SIM                       CRGRO046 1\000001    1              
 MODEL          : CRGRO046 - Dry bean                                           
 EXPERIMENT     : 1\000001 BN PALMIRA_ANALISIS SENSIBILIDAD                     
 DATA PATH      : D:\B\0\00000                                                  
 TREATMENT  1   : SIM                       CRGRO046                            
                                                                                
                                                                                
 CROP           : Dry bean         CULTIVAR : Jatu Rong        ECOTYPE :ANDIND  
 STARTING DATE  : APR  2 1981                                                   
 PLANTING DATE  : APR 16 1981        PLANTS/m2 : 26.6     ROW SPACING :  60.cm  
 WEATHER        : PALM8034                                                      
 SOIL           : CCPA000030     TEXTURE : C     -   Silty Clay Loam            
 WATER BALANCE  : NOT SIMULATED ; NO H2O-STRESS                                 
 IRRIGATION     :                                                               
 NITROGEN BAL.  : NOT SIMULATED ; NO N-STRESS                                   
 N-FERTILIZER   :                                                               
 RESIDUE/MANURE :                                                               
 ENVIRONM. OPT. : DAYL=    0.00  SRAD=    0.00  TMAX=    0.00  TMIN=    0.00    
                  RAIN=    0.00  CO2 =    0.00  DEW =    0.00  WIND=    0.00    
 SIMULATION OPT : WATER   :N  NITROGEN:N  N-FIX:N  PHOSPH :N  PESTS  :N         
                  PHOTO   :L  ET      :R  INFIL:S  HYDROL :R  SOM    :G         
                  CO2 340ppm  NSWIT   :1  EVAP :S  SOIL   :2  STEMP  :D         
 MANAGEMENT OPT : PLANTING:A  IRRIG   :A  FERT :D  RESIDUE:N  HARVEST:M         
                  WEATHER :M  TILLAGE :N                                        
                                                                                
*SUMMARY OF SOIL AND GENETIC INPUT PARAMETERS                                   
                                                                                
 Dry bean   CULTIVAR :000001-Jatu Rong          ECOTYPE :ANDIND                 
 CSDVAR :12.17  PPSEN  : 0.05  EMG-FLW:18.00  FLW-FSD: 9.00  FSD-PHM : 11.00    
 WTPSD  :0.600  SDPDVR : 3.50  SDFDUR :15.00  PODDUR :10.00  XFRUIT  :  1.00    
 THRESH : 78.0  SDPRO  :0.235  SDLIP   : 0.030                                  


*SIMULATED CROP AND SOIL STATUS AT MAIN DEVELOPMENT STAGES

 RUN NO.     2     SIM                     

        CROP GROWTH     BIOMASS         LEAF   CROP N     STRESS      STRESS                                           
   DATE  AGE STAGE        kg/ha    LAI   NUM  kg/ha  %   H2O  Nitr Phos1 Phos2  RSTG                                   
 ------  --- ----------   -----  -----  ----  ---  ---  ----  ----  ----  ----  ----                                   
  2 APR    0 Start Sim        0   0.00   0.0    0  0.0  0.00  0.00  0.00  0.00     0
 16 APR    0 Sowing           0   0.00   0.0    0  0.0  0.00  0.00  0.00  0.00     0
 21 APR    5 Emergence       44   0.08   0.2    1  3.4  0.00  0.00  0.00  0.00     0
 21 APR    5 End Juven.      44   0.08   0.2    1  3.4  0.00  0.00  0.00  0.00     0
 24 APR    8 Unifoliate      48   0.09   1.1    2  3.3  0.00  0.66  0.00  0.00     0
 26 APR   10 Flower Ind      54   0.10   1.7    2  3.2  0.00  0.47  0.00  0.00     0
 11 MAY   25 First Flwr     450   1.21   5.9   14  3.0  0.00  0.02  0.00  0.00     1
 13 MAY   27 First Pod      595   1.52   6.5   18  3.0  0.00  0.00  0.00  0.00     3
 20 MAY   34 First Seed    1190   1.96   8.5   37  3.1  0.00  0.00  0.00  0.00     5
 23 MAY   37 End Msnode    1520   2.00   9.4   46  3.0  0.00  0.00  0.00  0.00     5
 27 MAY   41 End Pod       1941   1.90   9.4   58  3.0  0.00  0.00  0.00  0.00     5
 30 MAY   44 End Leaf      2243   1.75   9.4   66  2.9  0.00  0.00  0.00  0.00     5
  2 JUN   47 Phys. Mat     2531   1.58   9.4   72  2.9  0.00  0.00  0.00  0.00     7
 11 JUN   56 Harv. Mat     2336   0.11   9.4   66  2.8  0.00  0.00  0.00  0.00     8
 11 JUN   56 Harvest       2336   0.11   9.4   66  2.8  0.00  0.00  0.00  0.00     8


*MAIN GROWTH AND DEVELOPMENT VARIABLES

@     VARIABLE                                         SIMULATED     MEASURED
      --------                                         ---------     --------
      Anthesis day (dap)                                      25          -99
      First pod day (dap)                                     27          -99
      First seed day (dap)                                    34          -99
      Physiological maturity day (dap)                        47          -99
      Yield at harvest maturity (kg [dm]/ha)                1223          -99
      Pod/Ear/Panicle weight at maturity (kg [dm]/ha)       1875          -99
      Number at maturity (no/m2)                             414          -99
      Unit wt at maturity (g [dm]/unit)                   0.2952          -99
      Number at maturity (no/unit)                          3.50          -99
      Tops weight at maturity (kg [dm]/ha)                  2336          -99
      By-product produced (stalk) at maturity (kg[dm]/ha    1110          -99
      Leaf area index, maximum                              2.00          -99
      Harvest index at maturity                            0.524          -99
      Threshing % at maturity                              65.22          -99
      Grain N at maturity (kg/ha)                             46          -99
      Tops N at maturity (kg/ha)                              66          -99
      Stem N at maturity (kg/ha)                               5          -99
      Grain N at maturity (%)                               3.76          -99
      Tops weight at anthesis (kg [dm]/ha)                   450          -99
      Tops N at anthesis (kg/ha)                              14          -99
      Leaf number per stem at maturity                      9.42          -99
      Grain oil at maturity (%)                             2.90          -99
      Canopy height (m)                                     0.73          -99
      Harvest maturity day (dap)                              56          -99
      Emergence day (dap)                                      5          -99


*ENVIRONMENTAL AND STRESS FACTORS

 |-----Development Phase------|--------------------------------------Environment--------------------------------------|-----------------Stress-----------------|
                              |---------------Average--------------|-----Cumulative-----|--------Count of days--------|          (0=Min, 1=Max Stress)         |
                         Time  Temp  Temp  Temp Solar Photop                Evapo    Pot TMIN TMIN TMAX TMAX TMAX RAIN|----Water----|---Nitrogen--|-Phosphorus-|
                         Span   Max   Min  Mean   Rad  [day]    CO2   Rain  Trans     ET   <    <    >    >    >    >   Photo         Photo         Photo
                         days    øC    øC    øC MJ/m2     hr    ppm     mm     mm     mm  0øC  2øC 30øC 32øC 34øC  0mm  synth Growth  synth Growth  synth Growth
----------------------------------------------------------------------------------------------------------------------------------------------------------------
 Emergence -First Flower   20  27.9  18.9  23.4  17.5  12.13  339.7   92.9    0.0    0.0    0    0    0    0    0   14  0.000  0.000  0.000  0.160  0.000  0.000
 First Flower-First Seed    9  29.2  19.2  24.2  18.1  12.16  339.8   20.1    0.0    0.0    0    0    3    0    0    5  0.000  0.000  0.000  0.000  0.000  0.000
 First Seed - Phys. Mat.   13  28.5  19.2  23.9  17.2  12.18  339.8   98.0    0.0    0.0    0    0    2    0    0    9  0.000  0.000  0.000  0.000  0.000  0.000
 Emergence  - Phys. Mat.   42  28.4  19.0  23.7  17.6  12.15  339.8  211.0    0.0    0.0    0    0    5    0    0   28  0.000  0.000  0.000  0.076  0.000  0.000


 Planting to Harvest       70  28.6  19.1  23.9  17.8  12.13  339.7  373.4    0.0    0.0    0    0   14    0    0   43  0.000  0.000  0.000  0.046  0.000  0.000
----------------------------------------------------------------------------------------------------------------------------------------------------------------

--------------------------------------------------------------------------------------------------------------

                  Dry bean YIELD :     1223 kg/ha    [Dry weight] 

**************************************************************************************************************

*DSSAT Cropping System Model Ver. 4.6.1.000 -release      JUL 11, 2017; 16:24:43
                                                                                
*RUN   3        : SIM                       CRGRO046 1\000001    1              
 MODEL          : CRGRO046 - Dry bean                                           
 EXPERIMENT     : 1\000001 BN PALMIRA_ANALISIS SENSIBILIDAD                     
 DATA PATH      : D:\B\0\00000                                                  
 TREATMENT  1   : SIM                       CRGRO046                            
                                                                                
                                                                                
 CROP           : Dry bean         CULTIVAR : Jatu Rong        ECOTYPE :ANDIND  
 STARTING DATE  : APR  2 1982                                                   
 PLANTING DATE  : APR 16 1982        PLANTS/m2 : 26.6     ROW SPACING :  60.cm  
 WEATHER        : PALM8034                                                      
 SOIL           : CCPA000030     TEXTURE : C     -   Silty Clay Loam            
 WATER BALANCE  : NOT SIMULATED ; NO H2O-STRESS                                 
 IRRIGATION     :                                                               
 NITROGEN BAL.  : NOT SIMULATED ; NO N-STRESS                                   
 N-FERTILIZER   :                                                               
 RESIDUE/MANURE :                                                               
 ENVIRONM. OPT. : DAYL=    0.00  SRAD=    0.00  TMAX=    0.00  TMIN=    0.00    
                  RAIN=    0.00  CO2 =    0.00  DEW =    0.00  WIND=    0.00    
 SIMULATION OPT : WATER   :N  NITROGEN:N  N-FIX:N  PHOSPH :N  PESTS  :N         
                  PHOTO   :L  ET      :R  INFIL:S  HYDROL :R  SOM    :G         
                  CO2 341ppm  NSWIT   :1  EVAP :S  SOIL   :2  STEMP  :D         
 MANAGEMENT OPT : PLANTING:A  IRRIG   :A  FERT :D  RESIDUE:N  HARVEST:M         
                  WEATHER :M  TILLAGE :N                                        
                                                                                
*SUMMARY OF SOIL AND GENETIC INPUT PARAMETERS                                   
                                                                                
 Dry bean   CULTIVAR :000001-Jatu Rong          ECOTYPE :ANDIND                 
 CSDVAR :12.17  PPSEN  : 0.05  EMG-FLW:18.00  FLW-FSD: 9.00  FSD-PHM : 11.00    
 WTPSD  :0.600  SDPDVR : 3.50  SDFDUR :15.00  PODDUR :10.00  XFRUIT  :  1.00    
 THRESH : 78.0  SDPRO  :0.235  SDLIP   : 0.030                                  


*SIMULATED CROP AND SOIL STATUS AT MAIN DEVELOPMENT STAGES

 RUN NO.     3     SIM                     

        CROP GROWTH     BIOMASS         LEAF   CROP N     STRESS      STRESS                                           
   DATE  AGE STAGE        kg/ha    LAI   NUM  kg/ha  %   H2O  Nitr Phos1 Phos2  RSTG                                   
 ------  --- ----------   -----  -----  ----  ---  ---  ----  ----  ----  ----  ----                                   
  2 APR    0 Start Sim        0   0.00   0.0    0  0.0  0.00  0.00  0.00  0.00     0
 16 APR    0 Sowing           0   0.00   0.0    0  0.0  0.00  0.00  0.00  0.00     0
 21 APR    5 Emergence       44   0.08   0.2    1  3.4  0.00  0.00  0.00  0.00     0
 21 APR    5 End Juven.      44   0.08   0.2    1  3.4  0.00  0.00  0.00  0.00     0
 24 APR    8 Unifoliate      49   0.09   1.1    2  3.3  0.00  0.65  0.00  0.00     0
 26 APR   10 Flower Ind      55   0.10   1.7    2  3.2  0.00  0.44  0.00  0.00     0
 10 MAY   24 First Flwr     419   1.13   5.8   13  3.0  0.00  0.01  0.00  0.00     1
 13 MAY   27 First Pod      630   1.59   6.7   19  3.1  0.00  0.00  0.00  0.00     3
 20 MAY   34 First Seed    1251   1.96   8.8   39  3.1  0.00  0.00  0.00  0.00     5
 22 MAY   36 End Msnode    1450   1.99   9.3   44  3.0  0.00  0.00  0.00  0.00     5
 27 MAY   41 End Pod       1965   1.86   9.3   59  3.0  0.00  0.00  0.00  0.00     5
 30 MAY   44 End Leaf      2263   1.71   9.3   67  2.9  0.00  0.00  0.00  0.00     5
  1 JUN   46 Phys. Mat     2458   1.59   9.3   71  2.9  0.00  0.00  0.00  0.00     7
 10 JUN   55 Harv. Mat     2279   0.11   9.3   65  2.8  0.00  0.00  0.00  0.00     8
 10 JUN   55 Harvest       2279   0.11   9.3   65  2.8  0.00  0.00  0.00  0.00     8


*MAIN GROWTH AND DEVELOPMENT VARIABLES

@     VARIABLE                                         SIMULATED     MEASURED
      --------                                         ---------     --------
      Anthesis day (dap)                                      24          -99
      First pod day (dap)                                     27          -99
      First seed day (dap)                                    34          -99
      Physiological maturity day (dap)                        46          -99
      Yield at harvest maturity (kg [dm]/ha)                1195          -99
      Pod/Ear/Panicle weight at maturity (kg [dm]/ha)       1851          -99
      Number at maturity (no/m2)                             409          -99
      Unit wt at maturity (g [dm]/unit)                   0.2923          -99
      Number at maturity (no/unit)                          3.50          -99
      Tops weight at maturity (kg [dm]/ha)                  2279          -99
      By-product produced (stalk) at maturity (kg[dm]/ha    1080          -99
      Leaf area index, maximum                              1.99          -99
      Harvest index at maturity                            0.524          -99
      Threshing % at maturity                              64.52          -99
      Grain N at maturity (kg/ha)                             45          -99
      Tops N at maturity (kg/ha)                              65          -99
      Stem N at maturity (kg/ha)                               5          -99
      Grain N at maturity (%)                               3.77          -99
      Tops weight at anthesis (kg [dm]/ha)                   419          -99
      Tops N at anthesis (kg/ha)                              13          -99
      Leaf number per stem at maturity                      9.34          -99
      Grain oil at maturity (%)                             2.91          -99
      Canopy height (m)                                     0.75          -99
      Harvest maturity day (dap)                              55          -99
      Emergence day (dap)                                      5          -99


*ENVIRONMENTAL AND STRESS FACTORS

 |-----Development Phase------|--------------------------------------Environment--------------------------------------|-----------------Stress-----------------|
                              |---------------Average--------------|-----Cumulative-----|--------Count of days--------|          (0=Min, 1=Max Stress)         |
                         Time  Temp  Temp  Temp Solar Photop                Evapo    Pot TMIN TMIN TMAX TMAX TMAX RAIN|----Water----|---Nitrogen--|-Phosphorus-|
                         Span   Max   Min  Mean   Rad  [day]    CO2   Rain  Trans     ET   <    <    >    >    >    >   Photo         Photo         Photo
                         days    øC    øC    øC MJ/m2     hr    ppm     mm     mm     mm  0øC  2øC 30øC 32øC 34øC  0mm  synth Growth  synth Growth  synth Growth
----------------------------------------------------------------------------------------------------------------------------------------------------------------
 Emergence -First Flower   19  29.2  19.2  24.2  18.4  12.12  340.9   57.5    0.0    0.0    0    0    7    1    0    8  0.000  0.000  0.000  0.158  0.000  0.000
 First Flower-First Seed   10  29.7  19.5  24.6  18.3  12.16  340.9   31.1    0.0    0.0    0    0    4    1    0    3  0.000  0.000  0.000  0.000  0.000  0.000
 First Seed - Phys. Mat.   12  27.8  19.2  23.5  16.5  12.18  341.0   33.6    0.0    0.0    0    0    2    0    0    5  0.000  0.000  0.000  0.000  0.000  0.000
 Emergence  - Phys. Mat.   41  28.9  19.3  24.1  17.8  12.15  340.9  122.2    0.0    0.0    0    0   13    2    0   16  0.000  0.000  0.000  0.073  0.000  0.000


 Planting to Harvest       69  29.0  19.3  24.2  18.0  12.13  340.9  258.0    0.0    0.0    0    0   19    2    0   28  0.000  0.000  0.000  0.044  0.000  0.000
----------------------------------------------------------------------------------------------------------------------------------------------------------------

--------------------------------------------------------------------------------------------------------------

                  Dry bean YIELD :     1195 kg/ha    [Dry weight] 

**************************************************************************************************************

*DSSAT Cropping System Model Ver. 4.6.1.000 -release      JUL 11, 2017; 16:24:43
                                                                                
*RUN   4        : SIM                       CRGRO046 1\000001    1              
 MODEL          : CRGRO046 - Dry bean                                           
 EXPERIMENT     : 1\000001 BN PALMIRA_ANALISIS SENSIBILIDAD                     
 DATA PATH      : D:\B\0\00000                                                  
 TREATMENT  1   : SIM                       CRGRO046                            
                                                                                
                                                                                
 CROP           : Dry bean         CULTIVAR : Jatu Rong        ECOTYPE :ANDIND  
 STARTING DATE  : APR  2 1983                                                   
 PLANTING DATE  : APR 16 1983        PLANTS/m2 : 26.6     ROW SPACING :  60.cm  
 WEATHER        : PALM8034                                                      
 SOIL           : CCPA000030     TEXTURE : C     -   Silty Clay Loam            
 WATER BALANCE  : NOT SIMULATED ; NO H2O-STRESS                                 
 IRRIGATION     :                                                               
 NITROGEN BAL.  : NOT SIMULATED ; NO N-STRESS                                   
 N-FERTILIZER   :                                                               
 RESIDUE/MANURE :                                                               
 ENVIRONM. OPT. : DAYL=    0.00  SRAD=    0.00  TMAX=    0.00  TMIN=    0.00    
                  RAIN=    0.00  CO2 =    0.00  DEW =    0.00  WIND=    0.00    
 SIMULATION OPT : WATER   :N  NITROGEN:N  N-FIX:N  PHOSPH :N  PESTS  :N         
                  PHOTO   :L  ET      :R  INFIL:S  HYDROL :R  SOM    :G         
                  CO2 342ppm  NSWIT   :1  EVAP :S  SOIL   :2  STEMP  :D         
 MANAGEMENT OPT : PLANTING:A  IRRIG   :A  FERT :D  RESIDUE:N  HARVEST:M         
                  WEATHER :M  TILLAGE :N                                        
                                                                                
*SUMMARY OF SOIL AND GENETIC INPUT PARAMETERS                                   
                                                                                
 Dry bean   CULTIVAR :000001-Jatu Rong          ECOTYPE :ANDIND                 
 CSDVAR :12.17  PPSEN  : 0.05  EMG-FLW:18.00  FLW-FSD: 9.00  FSD-PHM : 11.00    
 WTPSD  :0.600  SDPDVR : 3.50  SDFDUR :15.00  PODDUR :10.00  XFRUIT  :  1.00    
 THRESH : 78.0  SDPRO  :0.235  SDLIP   : 0.030                                  


*SIMULATED CROP AND SOIL STATUS AT MAIN DEVELOPMENT STAGES

 RUN NO.     4     SIM                     

        CROP GROWTH     BIOMASS         LEAF   CROP N     STRESS      STRESS                                           
   DATE  AGE STAGE        kg/ha    LAI   NUM  kg/ha  %   H2O  Nitr Phos1 Phos2  RSTG                                   
 ------  --- ----------   -----  -----  ----  ---  ---  ----  ----  ----  ----  ----                                   
  2 APR    0 Start Sim        0   0.00   0.0    0  0.0  0.00  0.00  0.00  0.00     0
 16 APR    0 Sowing           0   0.00   0.0    0  0.0  0.00  0.00  0.00  0.00     0
 21 APR    5 Emergence       44   0.08   0.2    1  3.4  0.00  0.00  0.00  0.00     0
 21 APR    5 End Juven.      44   0.08   0.2    1  3.4  0.00  0.00  0.00  0.00     0
 24 APR    8 Unifoliate      48   0.09   1.1    2  3.3  0.00  0.66  0.00  0.00     0
 26 APR   10 Flower Ind      55   0.10   1.7    2  3.2  0.00  0.43  0.00  0.00     0
 10 MAY   24 First Flwr     440   1.19   5.9   13  3.0  0.00  0.01  0.00  0.00     1
 13 MAY   27 First Pod      656   1.63   6.8   20  3.1  0.00  0.00  0.00  0.00     3
 20 MAY   34 First Seed    1293   1.99   8.9   40  3.1  0.00  0.00  0.00  0.00     5
 22 MAY   36 End Msnode    1520   2.02   9.5   46  3.0  0.00  0.00  0.00  0.00     5
 26 MAY   40 End Pod       1963   1.92   9.5   58  3.0  0.00  0.00  0.00  0.00     5
 29 MAY   43 End Leaf      2270   1.77   9.5   66  2.9  0.00  0.00  0.00  0.00     5
  1 JUN   46 Phys. Mat     2567   1.60   9.5   74  2.9  0.00  0.00  0.00  0.00     7
 10 JUN   55 Harv. Mat     2365   0.11   9.5   67  2.8  0.00  0.00  0.00  0.00     8
 10 JUN   55 Harvest       2365   0.11   9.5   67  2.8  0.00  0.00  0.00  0.00     8


*MAIN GROWTH AND DEVELOPMENT VARIABLES

@     VARIABLE                                         SIMULATED     MEASURED
      --------                                         ---------     --------
      Anthesis day (dap)                                      24          -99
      First pod day (dap)                                     27          -99
      First seed day (dap)                                    34          -99
      Physiological maturity day (dap)                        46          -99
      Yield at harvest maturity (kg [dm]/ha)                1254          -99
      Pod/Ear/Panicle weight at maturity (kg [dm]/ha)       1898          -99
      Number at maturity (no/m2)                             411          -99
      Unit wt at maturity (g [dm]/unit)                   0.3055          -99
      Number at maturity (no/unit)                          3.50          -99
      Tops weight at maturity (kg [dm]/ha)                  2365          -99
      By-product produced (stalk) at maturity (kg[dm]/ha    1110          -99
      Leaf area index, maximum                              2.02          -99
      Harvest index at maturity                            0.531          -99
      Threshing % at maturity                              66.10          -99
      Grain N at maturity (kg/ha)                             47          -99
      Tops N at maturity (kg/ha)                              67          -99
      Stem N at maturity (kg/ha)                               5          -99
      Grain N at maturity (%)                               3.77          -99
      Tops weight at anthesis (kg [dm]/ha)                   440          -99
      Tops N at anthesis (kg/ha)                              13          -99
      Leaf number per stem at maturity                      9.50          -99
      Grain oil at maturity (%)                             2.91          -99
      Canopy height (m)                                     0.75          -99
      Harvest maturity day (dap)                              55          -99
      Emergence day (dap)                                      5          -99


*ENVIRONMENTAL AND STRESS FACTORS

 |-----Development Phase------|--------------------------------------Environment--------------------------------------|-----------------Stress-----------------|
                              |---------------Average--------------|-----Cumulative-----|--------Count of days--------|          (0=Min, 1=Max Stress)         |
                         Time  Temp  Temp  Temp Solar Photop                Evapo    Pot TMIN TMIN TMAX TMAX TMAX RAIN|----Water----|---Nitrogen--|-Phosphorus-|
                         Span   Max   Min  Mean   Rad  [day]    CO2   Rain  Trans     ET   <    <    >    >    >    >   Photo         Photo         Photo
                         days    øC    øC    øC MJ/m2     hr    ppm     mm     mm     mm  0øC  2øC 30øC 32øC 34øC  0mm  synth Growth  synth Growth  synth Growth
----------------------------------------------------------------------------------------------------------------------------------------------------------------
 Emergence -First Flower   19  29.7  19.8  24.7  18.4  12.12  342.3   40.2    0.0    0.0    0    0    9    0    0    7  0.000  0.000  0.000  0.160  0.000  0.000
 First Flower-First Seed   10  29.5  19.6  24.6  18.1  12.16  342.4   64.8    0.0    0.0    0    0    3    0    0    6  0.000  0.000  0.000  0.000  0.000  0.000
 First Seed - Phys. Mat.   12  29.9  19.5  24.7  18.3  12.18  342.5    8.8    0.0    0.0    0    0    6    0    0    3  0.000  0.000  0.000  0.000  0.000  0.000
 Emergence  - Phys. Mat.   41  29.7  19.6  24.7  18.3  12.15  342.4  113.8    0.0    0.0    0    0   18    0    0   16  0.000  0.000  0.000  0.074  0.000  0.000


 Planting to Harvest       69  29.5  19.6  24.5  18.2  12.13  342.3  223.1    0.0    0.0    0    0   26    0    0   32  0.000  0.000  0.000  0.044  0.000  0.000
----------------------------------------------------------------------------------------------------------------------------------------------------------------

--------------------------------------------------------------------------------------------------------------

                  Dry bean YIELD :     1254 kg/ha    [Dry weight] 

**************************************************************************************************************

*DSSAT Cropping System Model Ver. 4.6.1.000 -release      JUL 11, 2017; 16:24:43
                                                                                
*RUN   5        : SIM                       CRGRO046 1\000001    1              
 MODEL          : CRGRO046 - Dry bean                                           
 EXPERIMENT     : 1\000001 BN PALMIRA_ANALISIS SENSIBILIDAD                     
 DATA PATH      : D:\B\0\00000                                                  
 TREATMENT  1   : SIM                       CRGRO046                            
                                                                                
                                                                                
 CROP           : Dry bean         CULTIVAR : Jatu Rong        ECOTYPE :ANDIND  
 STARTING DATE  : APR  1 1984                                                   
 PLANTING DATE  : APR 15 1984        PLANTS/m2 : 26.6     ROW SPACING :  60.cm  
 WEATHER        : PALM8034                                                      
 SOIL           : CCPA000030     TEXTURE : C     -   Silty Clay Loam            
 WATER BALANCE  : NOT SIMULATED ; NO H2O-STRESS                                 
 IRRIGATION     :                                                               
 NITROGEN BAL.  : NOT SIMULATED ; NO N-STRESS                                   
 N-FERTILIZER   :                                                               
 RESIDUE/MANURE :                                                               
 ENVIRONM. OPT. : DAYL=    0.00  SRAD=    0.00  TMAX=    0.00  TMIN=    0.00    
                  RAIN=    0.00  CO2 =    0.00  DEW =    0.00  WIND=    0.00    
 SIMULATION OPT : WATER   :N  NITROGEN:N  N-FIX:N  PHOSPH :N  PESTS  :N         
                  PHOTO   :L  ET      :R  INFIL:S  HYDROL :R  SOM    :G         
                  CO2 344ppm  NSWIT   :1  EVAP :S  SOIL   :2  STEMP  :D         
 MANAGEMENT OPT : PLANTING:A  IRRIG   :A  FERT :D  RESIDUE:N  HARVEST:M         
                  WEATHER :M  TILLAGE :N                                        
                                                                                
*SUMMARY OF SOIL AND GENETIC INPUT PARAMETERS                                   
                                                                                
 Dry bean   CULTIVAR :000001-Jatu Rong          ECOTYPE :ANDIND                 
 CSDVAR :12.17  PPSEN  : 0.05  EMG-FLW:18.00  FLW-FSD: 9.00  FSD-PHM : 11.00    
 WTPSD  :0.600  SDPDVR : 3.50  SDFDUR :15.00  PODDUR :10.00  XFRUIT  :  1.00    
 THRESH : 78.0  SDPRO  :0.235  SDLIP   : 0.030                                  


*SIMULATED CROP AND SOIL STATUS AT MAIN DEVELOPMENT STAGES

 RUN NO.     5     SIM                     

        CROP GROWTH     BIOMASS         LEAF   CROP N     STRESS      STRESS                                           
   DATE  AGE STAGE        kg/ha    LAI   NUM  kg/ha  %   H2O  Nitr Phos1 Phos2  RSTG                                   
 ------  --- ----------   -----  -----  ----  ---  ---  ----  ----  ----  ----  ----                                   
  1 APR    0 Start Sim        0   0.00   0.0    0  0.0  0.00  0.00  0.00  0.00     0
 15 APR    0 Sowing           0   0.00   0.0    0  0.0  0.00  0.00  0.00  0.00     0
 20 APR    5 Emergence       44   0.08   0.2    1  3.4  0.00  0.00  0.00  0.00     0
 20 APR    5 End Juven.      44   0.08   0.2    1  3.4  0.00  0.00  0.00  0.00     0
 23 APR    8 Unifoliate      49   0.09   1.1    2  3.3  0.00  0.64  0.00  0.00     0
 25 APR   10 Flower Ind      55   0.10   1.7    2  3.2  0.00  0.45  0.00  0.00     0
  9 MAY   24 First Flwr     414   1.09   5.7   13  3.0  0.00  0.01  0.00  0.00     1
 12 MAY   27 First Pod      627   1.56   6.6   19  3.1  0.00  0.00  0.00  0.00     3
 19 MAY   34 First Seed    1242   1.96   8.6   38  3.1  0.00  0.00  0.00  0.00     5
 21 MAY   36 End Msnode    1456   1.99   9.2   45  3.1  0.00  0.00  0.00  0.00     5
 26 MAY   41 End Pod       1972   1.87   9.2   60  3.0  0.00  0.00  0.00  0.00     5
 29 MAY   44 End Leaf      2276   1.73   9.2   68  3.0  0.00  0.00  0.00  0.00     5
  1 JUN   47 Phys. Mat     2571   1.57   9.2   75  2.9  0.00  0.00  0.00  0.00     7
 10 JUN   56 Harv. Mat     2401   0.11   9.2   69  2.9  0.00  0.00  0.00  0.00     8
 10 JUN   56 Harvest       2401   0.11   9.2   69  2.9  0.00  0.00  0.00  0.00     8


*MAIN GROWTH AND DEVELOPMENT VARIABLES

@     VARIABLE                                         SIMULATED     MEASURED
      --------                                         ---------     --------
      Anthesis day (dap)                                      24          -99
      First pod day (dap)                                     27          -99
      First seed day (dap)                                    34          -99
      Physiological maturity day (dap)                        47          -99
      Yield at harvest maturity (kg [dm]/ha)                1317          -99
      Pod/Ear/Panicle weight at maturity (kg [dm]/ha)       1983          -99
      Number at maturity (no/m2)                             416          -99
      Unit wt at maturity (g [dm]/unit)                   0.3170          -99
      Number at maturity (no/unit)                          3.50          -99
      Tops weight at maturity (kg [dm]/ha)                  2401          -99
      By-product produced (stalk) at maturity (kg[dm]/ha    1080          -99
      Leaf area index, maximum                              1.99          -99
      Harvest index at maturity                            0.549          -99
      Threshing % at maturity                              66.44          -99
      Grain N at maturity (kg/ha)                             49          -99
      Tops N at maturity (kg/ha)                              69          -99
      Stem N at maturity (kg/ha)                               5          -99
      Grain N at maturity (%)                               3.75          -99
      Tops weight at anthesis (kg [dm]/ha)                   414          -99
      Tops N at anthesis (kg/ha)                              13          -99
      Leaf number per stem at maturity                      9.17          -99
      Grain oil at maturity (%)                             2.89          -99
      Canopy height (m)                                     0.70          -99
      Harvest maturity day (dap)                              56          -99
      Emergence day (dap)                                      5          -99


*ENVIRONMENTAL AND STRESS FACTORS

 |-----Development Phase------|--------------------------------------Environment--------------------------------------|-----------------Stress-----------------|
                              |---------------Average--------------|-----Cumulative-----|--------Count of days--------|          (0=Min, 1=Max Stress)         |
                         Time  Temp  Temp  Temp Solar Photop                Evapo    Pot TMIN TMIN TMAX TMAX TMAX RAIN|----Water----|---Nitrogen--|-Phosphorus-|
                         Span   Max   Min  Mean   Rad  [day]    CO2   Rain  Trans     ET   <    <    >    >    >    >   Photo         Photo         Photo
                         days    øC    øC    øC MJ/m2     hr    ppm     mm     mm     mm  0øC  2øC 30øC 32øC 34øC  0mm  synth Growth  synth Growth  synth Growth
----------------------------------------------------------------------------------------------------------------------------------------------------------------
 Emergence -First Flower   19  28.4  18.8  23.6  18.1  12.12  344.1   64.5    0.0    0.0    0    0    2    0    0   11  0.000  0.000  0.000  0.158  0.000  0.000
 First Flower-First Seed   10  28.8  18.8  23.8  18.2  12.16  344.2   11.2    0.0    0.0    0    0    1    0    0    4  0.000  0.000  0.000  0.000  0.000  0.000
 First Seed - Phys. Mat.   13  27.9  18.8  23.4  17.0  12.18  344.3   43.5    0.0    0.0    0    0    3    0    0    8  0.000  0.000  0.000  0.000  0.000  0.000
 Emergence  - Phys. Mat.   42  28.3  18.8  23.6  17.8  12.15  344.2  119.2    0.0    0.0    0    0    6    0    0   23  0.000  0.000  0.000  0.071  0.000  0.000


 Planting to Harvest       70  28.5  18.9  23.7  18.0  12.13  344.2  194.7    0.0    0.0    0    0   12    0    0   37  0.000  0.000  0.000  0.043  0.000  0.000
----------------------------------------------------------------------------------------------------------------------------------------------------------------

--------------------------------------------------------------------------------------------------------------

                  Dry bean YIELD :     1317 kg/ha    [Dry weight] 

**************************************************************************************************************

*DSSAT Cropping System Model Ver. 4.6.1.000 -release      JUL 11, 2017; 16:24:43
                                                                                
*RUN   6        : SIM                       CRGRO046 1\000001    1              
 MODEL          : CRGRO046 - Dry bean                                           
 EXPERIMENT     : 1\000001 BN PALMIRA_ANALISIS SENSIBILIDAD                     
 DATA PATH      : D:\B\0\00000                                                  
 TREATMENT  1   : SIM                       CRGRO046                            
                                                                                
                                                                                
 CROP           : Dry bean         CULTIVAR : Jatu Rong        ECOTYPE :ANDIND  
 STARTING DATE  : APR  2 1985                                                   
 PLANTING DATE  : APR 16 1985        PLANTS/m2 : 26.6     ROW SPACING :  60.cm  
 WEATHER        : PALM8034                                                      
 SOIL           : CCPA000030     TEXTURE : C     -   Silty Clay Loam            
 WATER BALANCE  : NOT SIMULATED ; NO H2O-STRESS                                 
 IRRIGATION     :                                                               
 NITROGEN BAL.  : NOT SIMULATED ; NO N-STRESS                                   
 N-FERTILIZER   :                                                               
 RESIDUE/MANURE :                                                               
 ENVIRONM. OPT. : DAYL=    0.00  SRAD=    0.00  TMAX=    0.00  TMIN=    0.00    
                  RAIN=    0.00  CO2 =    0.00  DEW =    0.00  WIND=    0.00    
 SIMULATION OPT : WATER   :N  NITROGEN:N  N-FIX:N  PHOSPH :N  PESTS  :N         
                  PHOTO   :L  ET      :R  INFIL:S  HYDROL :R  SOM    :G         
                  CO2 346ppm  NSWIT   :1  EVAP :S  SOIL   :2  STEMP  :D         
 MANAGEMENT OPT : PLANTING:A  IRRIG   :A  FERT :D  RESIDUE:N  HARVEST:M         
                  WEATHER :M  TILLAGE :N                                        
                                                                                
*SUMMARY OF SOIL AND GENETIC INPUT PARAMETERS                                   
                                                                                
 Dry bean   CULTIVAR :000001-Jatu Rong          ECOTYPE :ANDIND                 
 CSDVAR :12.17  PPSEN  : 0.05  EMG-FLW:18.00  FLW-FSD: 9.00  FSD-PHM : 11.00    
 WTPSD  :0.600  SDPDVR : 3.50  SDFDUR :15.00  PODDUR :10.00  XFRUIT  :  1.00    
 THRESH : 78.0  SDPRO  :0.235  SDLIP   : 0.030                                  


*SIMULATED CROP AND SOIL STATUS AT MAIN DEVELOPMENT STAGES

 RUN NO.     6     SIM                     

        CROP GROWTH     BIOMASS         LEAF   CROP N     STRESS      STRESS                                           
   DATE  AGE STAGE        kg/ha    LAI   NUM  kg/ha  %   H2O  Nitr Phos1 Phos2  RSTG                                   
 ------  --- ----------   -----  -----  ----  ---  ---  ----  ----  ----  ----  ----                                   
  2 APR    0 Start Sim        0   0.00   0.0    0  0.0  0.00  0.00  0.00  0.00     0
 16 APR    0 Sowing           0   0.00   0.0    0  0.0  0.00  0.00  0.00  0.00     0
 21 APR    5 Emergence       44   0.08   0.2    1  3.4  0.00  0.00  0.00  0.00     0
 21 APR    5 End Juven.      44   0.08   0.2    1  3.4  0.00  0.00  0.00  0.00     0
 24 APR    8 Unifoliate      48   0.09   1.1    2  3.3  0.00  0.66  0.00  0.00     0
 26 APR   10 Flower Ind      55   0.10   1.6    2  3.2  0.00  0.43  0.00  0.00     0
 10 MAY   24 First Flwr     425   1.10   5.7   13  3.0  0.00  0.01  0.00  0.00     1
 13 MAY   27 First Pod      636   1.57   6.5   19  3.0  0.00  0.00  0.00  0.00     3
 20 MAY   34 First Seed    1253   2.01   8.6   39  3.1  0.00  0.00  0.00  0.00     5
 23 MAY   37 End Msnode    1597   2.04   9.5   49  3.0  0.00  0.00  0.00  0.00     5
 27 MAY   41 End Pod       2047   1.93   9.5   61  3.0  0.00  0.00  0.00  0.00     5
 30 MAY   44 End Leaf      2350   1.78   9.5   69  2.9  0.00  0.00  0.00  0.00     5
  2 JUN   47 Phys. Mat     2625   1.61   9.5   76  2.9  0.00  0.00  0.00  0.00     7
 11 JUN   56 Harv. Mat     2452   0.11   9.5   71  2.9  0.00  0.00  0.00  0.00     8
 11 JUN   56 Harvest       2452   0.11   9.5   71  2.9  0.00  0.00  0.00  0.00     8


*MAIN GROWTH AND DEVELOPMENT VARIABLES

@     VARIABLE                                         SIMULATED     MEASURED
      --------                                         ---------     --------
      Anthesis day (dap)                                      24          -99
      First pod day (dap)                                     27          -99
      First seed day (dap)                                    34          -99
      Physiological maturity day (dap)                        47          -99
      Yield at harvest maturity (kg [dm]/ha)                1379          -99
      Pod/Ear/Panicle weight at maturity (kg [dm]/ha)       1993          -99
      Number at maturity (no/m2)                             408          -99
      Unit wt at maturity (g [dm]/unit)                   0.3378          -99
      Number at maturity (no/unit)                          3.50          -99
      Tops weight at maturity (kg [dm]/ha)                  2452          -99
      By-product produced (stalk) at maturity (kg[dm]/ha    1070          -99
      Leaf area index, maximum                              2.04          -99
      Harvest index at maturity                            0.562          -99
      Threshing % at maturity                              69.19          -99
      Grain N at maturity (kg/ha)                             52          -99
      Tops N at maturity (kg/ha)                              71          -99
      Stem N at maturity (kg/ha)                               5          -99
      Grain N at maturity (%)                               3.78          -99
      Tops weight at anthesis (kg [dm]/ha)                   425          -99
      Tops N at anthesis (kg/ha)                              13          -99
      Leaf number per stem at maturity                      9.47          -99
      Grain oil at maturity (%)                             2.86          -99
      Canopy height (m)                                     0.73          -99
      Harvest maturity day (dap)                              56          -99
      Emergence day (dap)                                      5          -99


*ENVIRONMENTAL AND STRESS FACTORS

 |-----Development Phase------|--------------------------------------Environment--------------------------------------|-----------------Stress-----------------|
                              |---------------Average--------------|-----Cumulative-----|--------Count of days--------|          (0=Min, 1=Max Stress)         |
                         Time  Temp  Temp  Temp Solar Photop                Evapo    Pot TMIN TMIN TMAX TMAX TMAX RAIN|----Water----|---Nitrogen--|-Phosphorus-|
                         Span   Max   Min  Mean   Rad  [day]    CO2   Rain  Trans     ET   <    <    >    >    >    >   Photo         Photo         Photo
                         days    øC    øC    øC MJ/m2     hr    ppm     mm     mm     mm  0øC  2øC 30øC 32øC 34øC  0mm  synth Growth  synth Growth  synth Growth
----------------------------------------------------------------------------------------------------------------------------------------------------------------
 Emergence -First Flower   19  29.3  18.6  23.9  19.2  12.12  345.6   50.9    0.0    0.0    0    0    5    0    0    8  0.000  0.000  0.000  0.158  0.000  0.000
 First Flower-First Seed   10  28.4  18.8  23.6  17.8  12.16  345.7   27.9    0.0    0.0    0    0    2    0    0    7  0.000  0.000  0.000  0.000  0.000  0.000
 First Seed - Phys. Mat.   13  29.4  19.6  24.5  17.7  12.18  345.7   31.0    0.0    0.0    0    0    4    0    0    6  0.000  0.000  0.000  0.000  0.000  0.000
 Emergence  - Phys. Mat.   42  29.1  18.9  24.0  18.4  12.15  345.7  109.8    0.0    0.0    0    0   11    0    0   21  0.000  0.000  0.000  0.072  0.000  0.000


 Planting to Harvest       70  29.2  18.9  24.1  18.6  12.13  345.7  157.3    0.0    0.0    0    0   20    0    0   30  0.000  0.000  0.000  0.043  0.000  0.000
----------------------------------------------------------------------------------------------------------------------------------------------------------------

--------------------------------------------------------------------------------------------------------------

                  Dry bean YIELD :     1379 kg/ha    [Dry weight] 

**************************************************************************************************************

*DSSAT Cropping System Model Ver. 4.6.1.000 -release      JUL 11, 2017; 16:24:43
                                                                                
*RUN   7        : SIM                       CRGRO046 1\000001    1              
 MODEL          : CRGRO046 - Dry bean                                           
 EXPERIMENT     : 1\000001 BN PALMIRA_ANALISIS SENSIBILIDAD                     
 DATA PATH      : D:\B\0\00000                                                  
 TREATMENT  1   : SIM                       CRGRO046                            
                                                                                
                                                                                
 CROP           : Dry bean         CULTIVAR : Jatu Rong        ECOTYPE :ANDIND  
 STARTING DATE  : APR  2 1986                                                   
 PLANTING DATE  : APR 16 1986        PLANTS/m2 : 26.6     ROW SPACING :  60.cm  
 WEATHER        : PALM8034                                                      
 SOIL           : CCPA000030     TEXTURE : C     -   Silty Clay Loam            
 WATER BALANCE  : NOT SIMULATED ; NO H2O-STRESS                                 
 IRRIGATION     :                                                               
 NITROGEN BAL.  : NOT SIMULATED ; NO N-STRESS                                   
 N-FERTILIZER   :                                                               
 RESIDUE/MANURE :                                                               
 ENVIRONM. OPT. : DAYL=    0.00  SRAD=    0.00  TMAX=    0.00  TMIN=    0.00    
                  RAIN=    0.00  CO2 =    0.00  DEW =    0.00  WIND=    0.00    
 SIMULATION OPT : WATER   :N  NITROGEN:N  N-FIX:N  PHOSPH :N  PESTS  :N         
                  PHOTO   :L  ET      :R  INFIL:S  HYDROL :R  SOM    :G         
                  CO2 347ppm  NSWIT   :1  EVAP :S  SOIL   :2  STEMP  :D         
 MANAGEMENT OPT : PLANTING:A  IRRIG   :A  FERT :D  RESIDUE:N  HARVEST:M         
                  WEATHER :M  TILLAGE :N                                        
                                                                                
*SUMMARY OF SOIL AND GENETIC INPUT PARAMETERS                                   
                                                                                
 Dry bean   CULTIVAR :000001-Jatu Rong          ECOTYPE :ANDIND                 
 CSDVAR :12.17  PPSEN  : 0.05  EMG-FLW:18.00  FLW-FSD: 9.00  FSD-PHM : 11.00    
 WTPSD  :0.600  SDPDVR : 3.50  SDFDUR :15.00  PODDUR :10.00  XFRUIT  :  1.00    
 THRESH : 78.0  SDPRO  :0.235  SDLIP   : 0.030                                  


*SIMULATED CROP AND SOIL STATUS AT MAIN DEVELOPMENT STAGES

 RUN NO.     7     SIM                     

        CROP GROWTH     BIOMASS         LEAF   CROP N     STRESS      STRESS                                           
   DATE  AGE STAGE        kg/ha    LAI   NUM  kg/ha  %   H2O  Nitr Phos1 Phos2  RSTG                                   
 ------  --- ----------   -----  -----  ----  ---  ---  ----  ----  ----  ----  ----                                   
  2 APR    0 Start Sim        0   0.00   0.0    0  0.0  0.00  0.00  0.00  0.00     0
 16 APR    0 Sowing           0   0.00   0.0    0  0.0  0.00  0.00  0.00  0.00     0
 21 APR    5 Emergence       44   0.08   0.2    1  3.4  0.00  0.00  0.00  0.00     0
 21 APR    5 End Juven.      44   0.08   0.2    1  3.4  0.00  0.00  0.00  0.00     0
 24 APR    8 Unifoliate      48   0.09   1.1    2  3.3  0.00  0.66  0.00  0.00     0
 26 APR   10 Flower Ind      55   0.10   1.7    2  3.2  0.00  0.44  0.00  0.00     0
 10 MAY   24 First Flwr     449   1.18   5.9   14  3.1  0.00  0.02  0.00  0.00     1
 13 MAY   27 First Pod      670   1.61   6.8   21  3.1  0.00  0.00  0.00  0.00     3
 20 MAY   34 First Seed    1338   2.01   8.9   41  3.1  0.00  0.00  0.00  0.00     5
 22 MAY   36 End Msnode    1569   2.04   9.5   48  3.0  0.00  0.00  0.00  0.00     5
 26 MAY   40 End Pod       2032   1.95   9.5   61  3.0  0.00  0.00  0.00  0.00     5
 29 MAY   43 End Leaf      2339   1.79   9.5   68  2.9  0.00  0.00  0.00  0.00     5
  1 JUN   46 Phys. Mat     2646   1.62   9.5   75  2.8  0.00  0.00  0.00  0.00     7
 10 JUN   55 Harv. Mat     2402   0.11   9.5   67  2.8  0.00  0.00  0.00  0.00     8
 10 JUN   55 Harvest       2402   0.11   9.5   67  2.8  0.00  0.00  0.00  0.00     8


*MAIN GROWTH AND DEVELOPMENT VARIABLES

@     VARIABLE                                         SIMULATED     MEASURED
      --------                                         ---------     --------
      Anthesis day (dap)                                      24          -99
      First pod day (dap)                                     27          -99
      First seed day (dap)                                    34          -99
      Physiological maturity day (dap)                        46          -99
      Yield at harvest maturity (kg [dm]/ha)                1258          -99
      Pod/Ear/Panicle weight at maturity (kg [dm]/ha)       1888          -99
      Number at maturity (no/m2)                             422          -99
      Unit wt at maturity (g [dm]/unit)                   0.2980          -99
      Number at maturity (no/unit)                          3.50          -99
      Tops weight at maturity (kg [dm]/ha)                  2402          -99
      By-product produced (stalk) at maturity (kg[dm]/ha    1140          -99
      Leaf area index, maximum                              2.04          -99
      Harvest index at maturity                            0.524          -99
      Threshing % at maturity                              66.62          -99
      Grain N at maturity (kg/ha)                             47          -99
      Tops N at maturity (kg/ha)                              67          -99
      Stem N at maturity (kg/ha)                               6          -99
      Grain N at maturity (%)                               3.75          -99
      Tops weight at anthesis (kg [dm]/ha)                   449          -99
      Tops N at anthesis (kg/ha)                              14          -99
      Leaf number per stem at maturity                      9.51          -99
      Grain oil at maturity (%)                             2.90          -99
      Canopy height (m)                                     0.75          -99
      Harvest maturity day (dap)                              55          -99
      Emergence day (dap)                                      5          -99


*ENVIRONMENTAL AND STRESS FACTORS

 |-----Development Phase------|--------------------------------------Environment--------------------------------------|-----------------Stress-----------------|
                              |---------------Average--------------|-----Cumulative-----|--------Count of days--------|          (0=Min, 1=Max Stress)         |
                         Time  Temp  Temp  Temp Solar Photop                Evapo    Pot TMIN TMIN TMAX TMAX TMAX RAIN|----Water----|---Nitrogen--|-Phosphorus-|
                         Span   Max   Min  Mean   Rad  [day]    CO2   Rain  Trans     ET   <    <    >    >    >    >   Photo         Photo         Photo
                         days    øC    øC    øC MJ/m2     hr    ppm     mm     mm     mm  0øC  2øC 30øC 32øC 34øC  0mm  synth Growth  synth Growth  synth Growth
----------------------------------------------------------------------------------------------------------------------------------------------------------------
 Emergence -First Flower   19  30.3  19.4  24.9  19.3  12.12  346.8   51.8    0.0    0.0    0    0   11    3    0   11  0.000  0.000  0.000  0.162  0.000  0.000
 First Flower-First Seed   10  31.4  19.2  25.3  20.0  12.16  346.9   21.0    0.0    0.0    0    0    9    2    0    5  0.000  0.000  0.000  0.000  0.000  0.000
 First Seed - Phys. Mat.   12  30.6  19.2  24.9  19.1  12.18  346.9   69.2    0.0    0.0    0    0   10    0    0    7  0.000  0.000  0.000  0.000  0.000  0.000
 Emergence  - Phys. Mat.   41  30.7  19.3  25.0  19.4  12.15  346.9  142.0    0.0    0.0    0    0   30    5    0   23  0.000  0.000  0.000  0.075  0.000  0.000


 Planting to Harvest       69  29.7  19.2  24.5  18.8  12.13  346.8  309.9    0.0    0.0    0    0   35    5    0   39  0.000  0.000  0.000  0.045  0.000  0.000
----------------------------------------------------------------------------------------------------------------------------------------------------------------

--------------------------------------------------------------------------------------------------------------

                  Dry bean YIELD :     1258 kg/ha    [Dry weight] 

**************************************************************************************************************

*DSSAT Cropping System Model Ver. 4.6.1.000 -release      JUL 11, 2017; 16:24:43
                                                                                
*RUN   8        : SIM                       CRGRO046 1\000001    1              
 MODEL          : CRGRO046 - Dry bean                                           
 EXPERIMENT     : 1\000001 BN PALMIRA_ANALISIS SENSIBILIDAD                     
 DATA PATH      : D:\B\0\00000                                                  
 TREATMENT  1   : SIM                       CRGRO046                            
                                                                                
                                                                                
 CROP           : Dry bean         CULTIVAR : Jatu Rong        ECOTYPE :ANDIND  
 STARTING DATE  : APR  2 1987                                                   
 PLANTING DATE  : APR 16 1987        PLANTS/m2 : 26.6     ROW SPACING :  60.cm  
 WEATHER        : PALM8034                                                      
 SOIL           : CCPA000030     TEXTURE : C     -   Silty Clay Loam            
 WATER BALANCE  : NOT SIMULATED ; NO H2O-STRESS                                 
 IRRIGATION     :                                                               
 NITROGEN BAL.  : NOT SIMULATED ; NO N-STRESS                                   
 N-FERTILIZER   :                                                               
 RESIDUE/MANURE :                                                               
 ENVIRONM. OPT. : DAYL=    0.00  SRAD=    0.00  TMAX=    0.00  TMIN=    0.00    
                  RAIN=    0.00  CO2 =    0.00  DEW =    0.00  WIND=    0.00    
 SIMULATION OPT : WATER   :N  NITROGEN:N  N-FIX:N  PHOSPH :N  PESTS  :N         
                  PHOTO   :L  ET      :R  INFIL:S  HYDROL :R  SOM    :G         
                  CO2 348ppm  NSWIT   :1  EVAP :S  SOIL   :2  STEMP  :D         
 MANAGEMENT OPT : PLANTING:A  IRRIG   :A  FERT :D  RESIDUE:N  HARVEST:M         
                  WEATHER :M  TILLAGE :N                                        
                                                                                
*SUMMARY OF SOIL AND GENETIC INPUT PARAMETERS                                   
                                                                                
 Dry bean   CULTIVAR :000001-Jatu Rong          ECOTYPE :ANDIND                 
 CSDVAR :12.17  PPSEN  : 0.05  EMG-FLW:18.00  FLW-FSD: 9.00  FSD-PHM : 11.00    
 WTPSD  :0.600  SDPDVR : 3.50  SDFDUR :15.00  PODDUR :10.00  XFRUIT  :  1.00    
 THRESH : 78.0  SDPRO  :0.235  SDLIP   : 0.030                                  


*SIMULATED CROP AND SOIL STATUS AT MAIN DEVELOPMENT STAGES

 RUN NO.     8     SIM                     

        CROP GROWTH     BIOMASS         LEAF   CROP N     STRESS      STRESS                                           
   DATE  AGE STAGE        kg/ha    LAI   NUM  kg/ha  %   H2O  Nitr Phos1 Phos2  RSTG                                   
 ------  --- ----------   -----  -----  ----  ---  ---  ----  ----  ----  ----  ----                                   
  2 APR    0 Start Sim        0   0.00   0.0    0  0.0  0.00  0.00  0.00  0.00     0
 16 APR    0 Sowing           0   0.00   0.0    0  0.0  0.00  0.00  0.00  0.00     0
 21 APR    5 Emergence       44   0.08   0.2    1  3.4  0.00  0.00  0.00  0.00     0
 21 APR    5 End Juven.      44   0.08   0.2    1  3.4  0.00  0.00  0.00  0.00     0
 24 APR    8 Unifoliate      49   0.09   1.1    2  3.3  0.00  0.65  0.00  0.00     0
 26 APR   10 Flower Ind      56   0.10   1.7    2  3.2  0.00  0.43  0.00  0.00     0
 10 MAY   24 First Flwr     473   1.20   5.9   14  3.1  0.00  0.01  0.00  0.00     1
 13 MAY   27 First Pod      701   1.67   6.8   22  3.1  0.00  0.00  0.00  0.00     3
 20 MAY   34 First Seed    1385   2.09   8.9   43  3.1  0.00  0.00  0.00  0.00     5
 22 MAY   36 End Msnode    1622   2.13   9.5   49  3.0  0.00  0.00  0.00  0.00     5
 26 MAY   40 End Pod       2097   2.04   9.5   62  3.0  0.00  0.00  0.00  0.00     5
 29 MAY   43 End Leaf      2424   1.88   9.5   71  2.9  0.00  0.00  0.00  0.00     5
  1 JUN   46 Phys. Mat     2731   1.70   9.5   78  2.9  0.00  0.00  0.00  0.00     7
 10 JUN   55 Harv. Mat     2499   0.12   9.5   70  2.8  0.00  0.00  0.00  0.00     8
 10 JUN   55 Harvest       2499   0.12   9.5   70  2.8  0.00  0.00  0.00  0.00     8


*MAIN GROWTH AND DEVELOPMENT VARIABLES

@     VARIABLE                                         SIMULATED     MEASURED
      --------                                         ---------     --------
      Anthesis day (dap)                                      24          -99
      First pod day (dap)                                     27          -99
      First seed day (dap)                                    34          -99
      Physiological maturity day (dap)                        46          -99
      Yield at harvest maturity (kg [dm]/ha)                1325          -99
      Pod/Ear/Panicle weight at maturity (kg [dm]/ha)       1967          -99
      Number at maturity (no/m2)                             432          -99
      Unit wt at maturity (g [dm]/unit)                   0.3071          -99
      Number at maturity (no/unit)                          3.50          -99
      Tops weight at maturity (kg [dm]/ha)                  2499          -99
      By-product produced (stalk) at maturity (kg[dm]/ha    1170          -99
      Leaf area index, maximum                              2.13          -99
      Harvest index at maturity                            0.530          -99
      Threshing % at maturity                              67.36          -99
      Grain N at maturity (kg/ha)                             50          -99
      Tops N at maturity (kg/ha)                              70          -99
      Stem N at maturity (kg/ha)                               6          -99
      Grain N at maturity (%)                               3.78          -99
      Tops weight at anthesis (kg [dm]/ha)                   473          -99
      Tops N at anthesis (kg/ha)                              14          -99
      Leaf number per stem at maturity                      9.49          -99
      Grain oil at maturity (%)                             2.94          -99
      Canopy height (m)                                     0.74          -99
      Harvest maturity day (dap)                              55          -99
      Emergence day (dap)                                      5          -99


*ENVIRONMENTAL AND STRESS FACTORS

 |-----Development Phase------|--------------------------------------Environment--------------------------------------|-----------------Stress-----------------|
                              |---------------Average--------------|-----Cumulative-----|--------Count of days--------|          (0=Min, 1=Max Stress)         |
                         Time  Temp  Temp  Temp Solar Photop                Evapo    Pot TMIN TMIN TMAX TMAX TMAX RAIN|----Water----|---Nitrogen--|-Phosphorus-|
                         Span   Max   Min  Mean   Rad  [day]    CO2   Rain  Trans     ET   <    <    >    >    >    >   Photo         Photo         Photo
                         days    øC    øC    øC MJ/m2     hr    ppm     mm     mm     mm  0øC  2øC 30øC 32øC 34øC  0mm  synth Growth  synth Growth  synth Growth
----------------------------------------------------------------------------------------------------------------------------------------------------------------
 Emergence -First Flower   19  31.3  18.9  25.1  20.6  12.12  348.5  126.1    0.0    0.0    0    0   16    5    1   13  0.000  0.000  0.000  0.155  0.000  0.000
 First Flower-First Seed   10  30.7  19.1  24.9  19.6  12.16  348.6   67.7    0.0    0.0    0    0    7    2    0    5  0.000  0.000  0.000  0.000  0.000  0.000
 First Seed - Phys. Mat.   12  31.8  19.6  25.7  19.7  12.18  348.6   38.1    0.0    0.0    0    0   11    6    0    5  0.000  0.000  0.000  0.000  0.000  0.000
 Emergence  - Phys. Mat.   41  31.3  19.2  25.2  20.1  12.15  348.5  231.9    0.0    0.0    0    0   34   13    1   23  0.000  0.000  0.000  0.072  0.000  0.000


 Planting to Harvest       69  31.2  19.3  25.3  20.0  12.13  348.5  238.6    0.0    0.0    0    0   54   20    1   27  0.000  0.000  0.000  0.043  0.000  0.000
----------------------------------------------------------------------------------------------------------------------------------------------------------------

--------------------------------------------------------------------------------------------------------------

                  Dry bean YIELD :     1325 kg/ha    [Dry weight] 

**************************************************************************************************************

*DSSAT Cropping System Model Ver. 4.6.1.000 -release      JUL 11, 2017; 16:24:43
                                                                                
*RUN   9        : SIM                       CRGRO046 1\000001    1              
 MODEL          : CRGRO046 - Dry bean                                           
 EXPERIMENT     : 1\000001 BN PALMIRA_ANALISIS SENSIBILIDAD                     
 DATA PATH      : D:\B\0\00000                                                  
 TREATMENT  1   : SIM                       CRGRO046                            
                                                                                
                                                                                
 CROP           : Dry bean         CULTIVAR : Jatu Rong        ECOTYPE :ANDIND  
 STARTING DATE  : APR  1 1988                                                   
 PLANTING DATE  : APR 15 1988        PLANTS/m2 : 26.6     ROW SPACING :  60.cm  
 WEATHER        : PALM8034                                                      
 SOIL           : CCPA000030     TEXTURE : C     -   Silty Clay Loam            
 WATER BALANCE  : NOT SIMULATED ; NO H2O-STRESS                                 
 IRRIGATION     :                                                               
 NITROGEN BAL.  : NOT SIMULATED ; NO N-STRESS                                   
 N-FERTILIZER   :                                                               
 RESIDUE/MANURE :                                                               
 ENVIRONM. OPT. : DAYL=    0.00  SRAD=    0.00  TMAX=    0.00  TMIN=    0.00    
                  RAIN=    0.00  CO2 =    0.00  DEW =    0.00  WIND=    0.00    
 SIMULATION OPT : WATER   :N  NITROGEN:N  N-FIX:N  PHOSPH :N  PESTS  :N         
                  PHOTO   :L  ET      :R  INFIL:S  HYDROL :R  SOM    :G         
                  CO2 351ppm  NSWIT   :1  EVAP :S  SOIL   :2  STEMP  :D         
 MANAGEMENT OPT : PLANTING:A  IRRIG   :A  FERT :D  RESIDUE:N  HARVEST:M         
                  WEATHER :M  TILLAGE :N                                        
                                                                                
*SUMMARY OF SOIL AND GENETIC INPUT PARAMETERS                                   
                                                                                
 Dry bean   CULTIVAR :000001-Jatu Rong          ECOTYPE :ANDIND                 
 CSDVAR :12.17  PPSEN  : 0.05  EMG-FLW:18.00  FLW-FSD: 9.00  FSD-PHM : 11.00    
 WTPSD  :0.600  SDPDVR : 3.50  SDFDUR :15.00  PODDUR :10.00  XFRUIT  :  1.00    
 THRESH : 78.0  SDPRO  :0.235  SDLIP   : 0.030                                  


*SIMULATED CROP AND SOIL STATUS AT MAIN DEVELOPMENT STAGES

 RUN NO.     9     SIM                     

        CROP GROWTH     BIOMASS         LEAF   CROP N     STRESS      STRESS                                           
   DATE  AGE STAGE        kg/ha    LAI   NUM  kg/ha  %   H2O  Nitr Phos1 Phos2  RSTG                                   
 ------  --- ----------   -----  -----  ----  ---  ---  ----  ----  ----  ----  ----                                   
  1 APR    0 Start Sim        0   0.00   0.0    0  0.0  0.00  0.00  0.00  0.00     0
 15 APR    0 Sowing           0   0.00   0.0    0  0.0  0.00  0.00  0.00  0.00     0
 20 APR    5 Emergence       44   0.08   0.2    1  3.4  0.00  0.00  0.00  0.00     0
 20 APR    5 End Juven.      44   0.08   0.2    1  3.4  0.00  0.00  0.00  0.00     0
 23 APR    8 Unifoliate      48   0.09   1.0    2  3.3  0.00  0.65  0.00  0.00     0
 25 APR   10 Flower Ind      56   0.10   1.6    2  3.2  0.00  0.41  0.00  0.00     0
  9 MAY   24 First Flwr     419   1.12   5.8   13  3.0  0.00  0.02  0.00  0.00     1
 12 MAY   27 First Pod      634   1.57   6.7   19  3.1  0.00  0.00  0.00  0.00     3
 19 MAY   34 First Seed    1252   1.94   8.8   39  3.1  0.00  0.00  0.00  0.00     5
 21 MAY   36 End Msnode    1475   1.97   9.3   45  3.0  0.00  0.00  0.00  0.00     5
 26 MAY   41 End Pod       2012   1.84   9.3   60  3.0  0.00  0.00  0.00  0.00     5
 29 MAY   44 End Leaf      2306   1.69   9.3   67  2.9  0.00  0.00  0.00  0.00     5
 31 MAY   46 Phys. Mat     2505   1.58   9.3   72  2.9  0.00  0.00  0.00  0.00     7
  9 JUN   55 Harv. Mat     2340   0.11   9.3   67  2.8  0.00  0.00  0.00  0.00     8
  9 JUN   55 Harvest       2340   0.11   9.3   67  2.8  0.00  0.00  0.00  0.00     8


*MAIN GROWTH AND DEVELOPMENT VARIABLES

@     VARIABLE                                         SIMULATED     MEASURED
      --------                                         ---------     --------
      Anthesis day (dap)                                      24          -99
      First pod day (dap)                                     27          -99
      First seed day (dap)                                    34          -99
      Physiological maturity day (dap)                        46          -99
      Yield at harvest maturity (kg [dm]/ha)                1208          -99
      Pod/Ear/Panicle weight at maturity (kg [dm]/ha)       1866          -99
      Number at maturity (no/m2)                             409          -99
      Unit wt at maturity (g [dm]/unit)                   0.2951          -99
      Number at maturity (no/unit)                          3.50          -99
      Tops weight at maturity (kg [dm]/ha)                  2340          -99
      By-product produced (stalk) at maturity (kg[dm]/ha    1130          -99
      Leaf area index, maximum                              1.97          -99
      Harvest index at maturity                            0.516          -99
      Threshing % at maturity                              64.75          -99
      Grain N at maturity (kg/ha)                             47          -99
      Tops N at maturity (kg/ha)                              67          -99
      Stem N at maturity (kg/ha)                               5          -99
      Grain N at maturity (%)                               3.87          -99
      Tops weight at anthesis (kg [dm]/ha)                   419          -99
      Tops N at anthesis (kg/ha)                              13          -99
      Leaf number per stem at maturity                      9.33          -99
      Grain oil at maturity (%)                             2.71          -99
      Canopy height (m)                                     0.72          -99
      Harvest maturity day (dap)                              55          -99
      Emergence day (dap)                                      5          -99


*ENVIRONMENTAL AND STRESS FACTORS

 |-----Development Phase------|--------------------------------------Environment--------------------------------------|-----------------Stress-----------------|
                              |---------------Average--------------|-----Cumulative-----|--------Count of days--------|          (0=Min, 1=Max Stress)         |
                         Time  Temp  Temp  Temp Solar Photop                Evapo    Pot TMIN TMIN TMAX TMAX TMAX RAIN|----Water----|---Nitrogen--|-Phosphorus-|
                         Span   Max   Min  Mean   Rad  [day]    CO2   Rain  Trans     ET   <    <    >    >    >    >   Photo         Photo         Photo
                         days    øC    øC    øC MJ/m2     hr    ppm     mm     mm     mm  0øC  2øC 30øC 32øC 34øC  0mm  synth Growth  synth Growth  synth Growth
----------------------------------------------------------------------------------------------------------------------------------------------------------------
 Emergence -First Flower   19  29.1  19.3  24.2  18.3  12.12  351.0   68.8    0.0    0.0    0    0    3    0    0    8  0.000  0.000  0.000  0.161  0.000  0.000
 First Flower-First Seed   10  29.5  19.5  24.5  18.1  12.16  351.1   16.3    0.0    0.0    0    0    5    0    0    3  0.000  0.000  0.000  0.000  0.000  0.000
 First Seed - Phys. Mat.   12  28.8  19.0  23.9  17.6  12.18  351.2   86.2    0.0    0.0    0    0    2    0    0    7  0.000  0.000  0.000  0.000  0.000  0.000
 Emergence  - Phys. Mat.   41  29.1  19.3  24.2  18.1  12.15  351.1  171.3    0.0    0.0    0    0   10    0    0   18  0.000  0.000  0.000  0.075  0.000  0.000


 Planting to Harvest       69  29.4  19.3  24.3  18.3  12.13  351.1  343.9    0.0    0.0    0    0   25    6    1   33  0.000  0.000  0.000  0.044  0.000  0.000
----------------------------------------------------------------------------------------------------------------------------------------------------------------

--------------------------------------------------------------------------------------------------------------

                  Dry bean YIELD :     1208 kg/ha    [Dry weight] 

**************************************************************************************************************

*DSSAT Cropping System Model Ver. 4.6.1.000 -release      JUL 11, 2017; 16:24:43
                                                                                
*RUN  10        : SIM                       CRGRO046 1\000001    1              
 MODEL          : CRGRO046 - Dry bean                                           
 EXPERIMENT     : 1\000001 BN PALMIRA_ANALISIS SENSIBILIDAD                     
 DATA PATH      : D:\B\0\00000                                                  
 TREATMENT  1   : SIM                       CRGRO046                            
[...]
      Emergence day (dap)                                      5          -99


*ENVIRONMENTAL AND STRESS FACTORS

 |-----Development Phase------|--------------------------------------Environment--------------------------------------|-----------------Stress-----------------|
                              |---------------Average--------------|-----Cumulative-----|--------Count of days--------|          (0=Min, 1=Max Stress)         |
                         Time  Temp  Temp  Temp Solar Photop                Evapo    Pot TMIN TMIN TMAX TMAX TMAX RAIN|----Water----|---Nitrogen--|-Phosphorus-|
                         Span   Max   Min  Mean   Rad  [day]    CO2   Rain  Trans     ET   <    <    >    >    >    >   Photo         Photo         Photo
                         days    øC    øC    øC MJ/m2     hr    ppm     mm     mm     mm  0øC  2øC 30øC 32øC 34øC  0mm  synth Growth  synth Growth  synth Growth
----------------------------------------------------------------------------------------------------------------------------------------------------------------
 Emergence -First Flower   19  30.4  19.1  24.7  19.7  12.12  386.9   48.3    0.0    0.0    0    0   14    2    0   12  0.000  0.000  0.000  0.148  0.000  0.000
 First Flower-First Seed   10  30.7  19.0  24.8  19.6  12.16  387.0    4.4    0.0    0.0    0    0    8    0    0    3  0.000  0.000  0.000  0.000  0.000  0.000
 First Seed - Phys. Mat.   12  30.5  18.9  24.7  19.3  12.18  387.1    0.2    0.0    0.0    0    0    8    1    0    1  0.000  0.000  0.000  0.000  0.000  0.000
 Emergence  - Phys. Mat.   41  30.5  19.0  24.8  19.5  12.15  387.0   52.9    0.0    0.0    0    0   30    3    0   16  0.000  0.000  0.000  0.069  0.000  0.000


 Planting to Harvest       69  30.2  19.2  24.7  19.3  12.13  387.0  104.3    0.0    0.0    0    0   43    5    0   30  0.000  0.000  0.000  0.041  0.000  0.000
----------------------------------------------------------------------------------------------------------------------------------------------------------------

--------------------------------------------------------------------------------------------------------------

                  Dry bean YIELD :     1318 kg/ha    [Dry weight] 

**************************************************************************************************************

*DSSAT Cropping System Model Ver. 4.6.1.000 -release      JUL 11, 2017; 16:24:43
                                                                                
*RUN  31        : SIM                       CRGRO046 1\000001    1              
 MODEL          : CRGRO046 - Dry bean                                           
 EXPERIMENT     : 1\000001 BN PALMIRA_ANALISIS SENSIBILIDAD                     
 DATA PATH      : D:\B\0\00000                                                  
 TREATMENT  1   : SIM                       CRGRO046                            
                                                                                
                                                                                
 CROP           : Dry bean         CULTIVAR : Jatu Rong        ECOTYPE :ANDIND  
 STARTING DATE  : APR  2 2010                                                   
 PLANTING DATE  : APR 16 2010        PLANTS/m2 : 26.6     ROW SPACING :  60.cm  
 WEATHER        : PALM8034                                                      
 SOIL           : CCPA000030     TEXTURE : C     -   Silty Clay Loam            
 WATER BALANCE  : NOT SIMULATED ; NO H2O-STRESS                                 
 IRRIGATION     :                                                               
 NITROGEN BAL.  : NOT SIMULATED ; NO N-STRESS                                   
 N-FERTILIZER   :                                                               
 RESIDUE/MANURE :                                                               
 ENVIRONM. OPT. : DAYL=    0.00  SRAD=    0.00  TMAX=    0.00  TMIN=    0.00    
                  RAIN=    0.00  CO2 =    0.00  DEW =    0.00  WIND=    0.00    
 SIMULATION OPT : WATER   :N  NITROGEN:N  N-FIX:N  PHOSPH :N  PESTS  :N         
                  PHOTO   :L  ET      :R  INFIL:S  HYDROL :R  SOM    :G         
                  CO2 389ppm  NSWIT   :1  EVAP :S  SOIL   :2  STEMP  :D         
 MANAGEMENT OPT : PLANTING:A  IRRIG   :A  FERT :D  RESIDUE:N  HARVEST:M         
                  WEATHER :M  TILLAGE :N                                        
                                                                                
*SUMMARY OF SOIL AND GENETIC INPUT PARAMETERS                                   
                                                                                
 Dry bean   CULTIVAR :000001-Jatu Rong          ECOTYPE :ANDIND                 
 CSDVAR :12.17  PPSEN  : 0.05  EMG-FLW:18.00  FLW-FSD: 9.00  FSD-PHM : 11.00    
 WTPSD  :0.600  SDPDVR : 3.50  SDFDUR :15.00  PODDUR :10.00  XFRUIT  :  1.00    
 THRESH : 78.0  SDPRO  :0.235  SDLIP   : 0.030                                  


*SIMULATED CROP AND SOIL STATUS AT MAIN DEVELOPMENT STAGES

 RUN NO.    31     SIM                     

        CROP GROWTH     BIOMASS         LEAF   CROP N     STRESS      STRESS                                           
   DATE  AGE STAGE        kg/ha    LAI   NUM  kg/ha  %   H2O  Nitr Phos1 Phos2  RSTG                                   
 ------  --- ----------   -----  -----  ----  ---  ---  ----  ----  ----  ----  ----                                   
  2 APR    0 Start Sim        0   0.00   0.0    0  0.0  0.00  0.00  0.00  0.00     0
 16 APR    0 Sowing           0   0.00   0.0    0  0.0  0.00  0.00  0.00  0.00     0
 21 APR    5 Emergence       44   0.08   0.2    1  3.4  0.00  0.00  0.00  0.00     0
 21 APR    5 End Juven.      44   0.08   0.2    1  3.4  0.00  0.00  0.00  0.00     0
 24 APR    8 Unifoliate      49   0.09   1.1    2  3.3  0.00  0.66  0.00  0.00     0
 26 APR   10 Flower Ind      55   0.10   1.7    2  3.1  0.00  0.45  0.00  0.00     0
 10 MAY   24 First Flwr     471   1.26   5.9   14  3.0  0.00  0.01  0.00  0.00     1
 12 MAY   26 First Pod      622   1.60   6.6   19  3.0  0.00  0.00  0.00  0.00     3
 19 MAY   33 First Seed    1302   2.13   8.8   40  3.1  0.00  0.00  0.00  0.00     5
 21 MAY   35 End Msnode    1515   2.16   9.4   46  3.0  0.00  0.00  0.00  0.00     5
 26 MAY   40 End Pod       2079   2.02   9.4   62  3.0  0.00  0.00  0.00  0.00     5
 29 MAY   43 End Leaf      2401   1.85   9.4   70  2.9  0.00  0.00  0.00  0.00     5
 31 MAY   45 Phys. Mat     2609   1.73   9.4   75  2.9  0.00  0.00  0.00  0.00     7
  9 JUN   54 Harv. Mat     2401   0.12   9.4   68  2.8  0.00  0.00  0.00  0.00     8
  9 JUN   54 Harvest       2401   0.12   9.4   68  2.8  0.00  0.00  0.00  0.00     8


*MAIN GROWTH AND DEVELOPMENT VARIABLES

@     VARIABLE                                         SIMULATED     MEASURED
      --------                                         ---------     --------
      Anthesis day (dap)                                      24          -99
      First pod day (dap)                                     26          -99
      First seed day (dap)                                    33          -99
      Physiological maturity day (dap)                        45          -99
      Yield at harvest maturity (kg [dm]/ha)                1246          -99
      Pod/Ear/Panicle weight at maturity (kg [dm]/ha)       1902          -99
      Number at maturity (no/m2)                             429          -99
      Unit wt at maturity (g [dm]/unit)                   0.2906          -99
      Number at maturity (no/unit)                          3.50          -99
      Tops weight at maturity (kg [dm]/ha)                  2401          -99
      By-product produced (stalk) at maturity (kg[dm]/ha    1160          -99
      Leaf area index, maximum                              2.16          -99
      Harvest index at maturity                            0.519          -99
      Threshing % at maturity                              65.49          -99
      Grain N at maturity (kg/ha)                             47          -99
      Tops N at maturity (kg/ha)                              68          -99
      Stem N at maturity (kg/ha)                               6          -99
      Grain N at maturity (%)                               3.76          -99
      Tops weight at anthesis (kg [dm]/ha)                   471          -99
      Tops N at anthesis (kg/ha)                              14          -99
      Leaf number per stem at maturity                      9.36          -99
      Grain oil at maturity (%)                             2.89          -99
      Canopy height (m)                                     0.74          -99
      Harvest maturity day (dap)                              54          -99
      Emergence day (dap)                                      5          -99


*ENVIRONMENTAL AND STRESS FACTORS

 |-----Development Phase------|--------------------------------------Environment--------------------------------------|-----------------Stress-----------------|
                              |---------------Average--------------|-----Cumulative-----|--------Count of days--------|          (0=Min, 1=Max Stress)         |
                         Time  Temp  Temp  Temp Solar Photop                Evapo    Pot TMIN TMIN TMAX TMAX TMAX RAIN|----Water----|---Nitrogen--|-Phosphorus-|
                         Span   Max   Min  Mean   Rad  [day]    CO2   Rain  Trans     ET   <    <    >    >    >    >   Photo         Photo         Photo
                         days    øC    øC    øC MJ/m2     hr    ppm     mm     mm     mm  0øC  2øC 30øC 32øC 34øC  0mm  synth Growth  synth Growth  synth Growth
----------------------------------------------------------------------------------------------------------------------------------------------------------------
 Emergence -First Flower   19  29.5  20.2  24.8  17.8  12.12  389.4  121.3    0.0    0.0    0    0    9    0    0    9  0.000  0.000  0.000  0.157  0.000  0.000
 First Flower-First Seed    9  31.0  20.9  26.0  18.3  12.16  389.5    5.5    0.0    0.0    0    0    8    1    0    3  0.000  0.000  0.000  0.000  0.000  0.000
 First Seed - Phys. Mat.   12  28.6  20.0  24.3  16.4  12.18  389.6   52.9    0.0    0.0    0    0    5    0    0    7  0.000  0.000  0.000  0.000  0.000  0.000
 Emergence  - Phys. Mat.   40  29.6  20.3  24.9  17.5  12.15  389.5  179.7    0.0    0.0    0    0   22    1    0   19  0.000  0.000  0.000  0.075  0.000  0.000


 Planting to Harvest       68  29.4  20.0  24.7  17.8  12.13  389.4  363.2    0.0    0.0    0    0   36    3    0   38  0.000  0.000  0.000  0.044  0.000  0.000
----------------------------------------------------------------------------------------------------------------------------------------------------------------

--------------------------------------------------------------------------------------------------------------

                  Dry bean YIELD :     1246 kg/ha    [Dry weight] 

**************************************************************************************************************

*DSSAT Cropping System Model Ver. 4.6.1.000 -release      JUL 11, 2017; 16:24:43
                                                                                
*RUN  32        : SIM                       CRGRO046 1\000001    1              
 MODEL          : CRGRO046 - Dry bean                                           
 EXPERIMENT     : 1\000001 BN PALMIRA_ANALISIS SENSIBILIDAD                     
 DATA PATH      : D:\B\0\00000                                                  
 TREATMENT  1   : SIM                       CRGRO046                            
                                                                                
                                                                                
 CROP           : Dry bean         CULTIVAR : Jatu Rong        ECOTYPE :ANDIND  
 STARTING DATE  : APR  2 2011                                                   
 PLANTING DATE  : APR 16 2011        PLANTS/m2 : 26.6     ROW SPACING :  60.cm  
 WEATHER        : PALM8034                                                      
 SOIL           : CCPA000030     TEXTURE : C     -   Silty Clay Loam            
 WATER BALANCE  : NOT SIMULATED ; NO H2O-STRESS                                 
 IRRIGATION     :                                                               
 NITROGEN BAL.  : NOT SIMULATED ; NO N-STRESS                                   
 N-FERTILIZER   :                                                               
 RESIDUE/MANURE :                                                               
 ENVIRONM. OPT. : DAYL=    0.00  SRAD=    0.00  TMAX=    0.00  TMIN=    0.00    
                  RAIN=    0.00  CO2 =    0.00  DEW =    0.00  WIND=    0.00    
 SIMULATION OPT : WATER   :N  NITROGEN:N  N-FIX:N  PHOSPH :N  PESTS  :N         
                  PHOTO   :L  ET      :R  INFIL:S  HYDROL :R  SOM    :G         
                  CO2 391ppm  NSWIT   :1  EVAP :S  SOIL   :2  STEMP  :D         
 MANAGEMENT OPT : PLANTING:A  IRRIG   :A  FERT :D  RESIDUE:N  HARVEST:M         
                  WEATHER :M  TILLAGE :N                                        
                                                                                
*SUMMARY OF SOIL AND GENETIC INPUT PARAMETERS                                   
                                                                                
 Dry bean   CULTIVAR :000001-Jatu Rong          ECOTYPE :ANDIND                 
 CSDVAR :12.17  PPSEN  : 0.05  EMG-FLW:18.00  FLW-FSD: 9.00  FSD-PHM : 11.00    
 WTPSD  :0.600  SDPDVR : 3.50  SDFDUR :15.00  PODDUR :10.00  XFRUIT  :  1.00    
 THRESH : 78.0  SDPRO  :0.235  SDLIP   : 0.030                                  


*SIMULATED CROP AND SOIL STATUS AT MAIN DEVELOPMENT STAGES

 RUN NO.    32     SIM                     

        CROP GROWTH     BIOMASS         LEAF   CROP N     STRESS      STRESS                                           
   DATE  AGE STAGE        kg/ha    LAI   NUM  kg/ha  %   H2O  Nitr Phos1 Phos2  RSTG                                   
 ------  --- ----------   -----  -----  ----  ---  ---  ----  ----  ----  ----  ----                                   
  2 APR    0 Start Sim        0   0.00   0.0    0  0.0  0.00  0.00  0.00  0.00     0
 16 APR    0 Sowing           0   0.00   0.0    0  0.0  0.00  0.00  0.00  0.00     0
 21 APR    5 Emergence       44   0.08   0.2    1  3.4  0.00  0.00  0.00  0.00     0
 21 APR    5 End Juven.      44   0.08   0.2    1  3.4  0.00  0.00  0.00  0.00     0
 24 APR    8 Unifoliate      49   0.09   1.1    2  3.3  0.00  0.64  0.00  0.00     0
 26 APR   10 Flower Ind      57   0.10   1.7    2  3.1  0.00  0.39  0.00  0.00     0
 10 MAY   24 First Flwr     474   1.24   5.9   14  3.0  0.00  0.01  0.00  0.00     1
 13 MAY   27 First Pod      711   1.73   6.8   22  3.1  0.00  0.00  0.00  0.00     3
 20 MAY   34 First Seed    1425   2.14   8.9   44  3.1  0.00  0.00  0.00  0.00     5
 22 MAY   36 End Msnode    1677   2.17   9.4   51  3.0  0.00  0.00  0.00  0.00     5
 26 MAY   40 End Pod       2180   2.08   9.4   65  3.0  0.00  0.00  0.00  0.00     5
 29 MAY   43 End Leaf      2520   1.91   9.4   74  2.9  0.00  0.00  0.00  0.00     5
  1 JUN   46 Phys. Mat     2848   1.73   9.4   82  2.9  0.00  0.00  0.00  0.00     7
 10 JUN   55 Harv. Mat     2626   0.12   9.4   74  2.8  0.00  0.00  0.00  0.00     8
 10 JUN   55 Harvest       2626   0.12   9.4   74  2.8  0.00  0.00  0.00  0.00     8


*MAIN GROWTH AND DEVELOPMENT VARIABLES

@     VARIABLE                                         SIMULATED     MEASURED
      --------                                         ---------     --------
      Anthesis day (dap)                                      24          -99
      First pod day (dap)                                     27          -99
      First seed day (dap)                                    34          -99
      Physiological maturity day (dap)                        46          -99
      Yield at harvest maturity (kg [dm]/ha)                1362          -99
      Pod/Ear/Panicle weight at maturity (kg [dm]/ha)       2083          -99
      Number at maturity (no/m2)                             477          -99
      Unit wt at maturity (g [dm]/unit)                   0.2855          -99
      Number at maturity (no/unit)                          3.50          -99
      Tops weight at maturity (kg [dm]/ha)                  2626          -99
      By-product produced (stalk) at maturity (kg[dm]/ha    1260          -99
      Leaf area index, maximum                              2.17          -99
      Harvest index at maturity                            0.519          -99
      Threshing % at maturity                              65.41          -99
      Grain N at maturity (kg/ha)                             52          -99
      Tops N at maturity (kg/ha)                              74          -99
      Stem N at maturity (kg/ha)                               6          -99
      Grain N at maturity (%)                               3.80          -99
      Tops weight at anthesis (kg [dm]/ha)                   474          -99
      Tops N at anthesis (kg/ha)                              14          -99
      Leaf number per stem at maturity                      9.45          -99
      Grain oil at maturity (%)                             2.86          -99
      Canopy height (m)                                     0.74          -99
      Harvest maturity day (dap)                              55          -99
      Emergence day (dap)                                      5          -99


*ENVIRONMENTAL AND STRESS FACTORS

 |-----Development Phase------|--------------------------------------Environment--------------------------------------|-----------------Stress-----------------|
                              |---------------Average--------------|-----Cumulative-----|--------Count of days--------|          (0=Min, 1=Max Stress)         |
                         Time  Temp  Temp  Temp Solar Photop                Evapo    Pot TMIN TMIN TMAX TMAX TMAX RAIN|----Water----|---Nitrogen--|-Phosphorus-|
                         Span   Max   Min  Mean   Rad  [day]    CO2   Rain  Trans     ET   <    <    >    >    >    >   Photo         Photo         Photo
                         days    øC    øC    øC MJ/m2     hr    ppm     mm     mm     mm  0øC  2øC 30øC 32øC 34øC  0mm  synth Growth  synth Growth  synth Growth
----------------------------------------------------------------------------------------------------------------------------------------------------------------
 Emergence -First Flower   19  30.3  19.5  24.9  19.2  12.12  391.2   62.9    0.0    0.0    0    0   11    1    0   11  0.000  0.000  0.000  0.150  0.000  0.000
 First Flower-First Seed   10  29.4  19.1  24.3  18.4  12.16  391.3   21.4    0.0    0.0    0    0    4    0    0    4  0.000  0.000  0.000  0.000  0.000  0.000
 First Seed - Phys. Mat.   12  30.2  19.3  24.8  18.7  12.18  391.4   12.9    0.0    0.0    0    0    7    0    0    6  0.000  0.000  0.000  0.000  0.000  0.000
 Emergence  - Phys. Mat.   41  30.1  19.4  24.7  18.8  12.15  391.3   97.2    0.0    0.0    0    0   22    1    0   21  0.000  0.000  0.000  0.070  0.000  0.000


 Planting to Harvest       69  29.6  19.3  24.5  18.6  12.13  391.2  270.5    0.0    0.0    0    0   32    2    0   40  0.000  0.000  0.000  0.041  0.000  0.000
----------------------------------------------------------------------------------------------------------------------------------------------------------------

--------------------------------------------------------------------------------------------------------------

                  Dry bean YIELD :     1362 kg/ha    [Dry weight] 

**************************************************************************************************************
