*GROWTH ASPECTS OUTPUT FILE

*DSSAT Cropping System Model Ver. 4.6.1.000 -release      JUL 11, 2017; 16:24:43
                                                                                
*RUN   1        : SIM                       CRGRO046 1\000001    1              
 MODEL          : CRGRO046 - Dry bean                                           
 EXPERIMENT     : 1\000001 BN PALMIRA_ANALISIS SENSIBILIDAD                     
 DATA PATH      : D:\B\0\00000                                                  
 TREATMENT  1   : SIM                       CRGRO046                            
  
!                                                                                                                                                                                                                                                    Root Dens. (cm/cm3) by soil depth (cm):
!                                                                                                                                                                                                                                                    0-5    5-15   15-25   25-35   35-50   50-65   65-80   80-99  99-122 122-209
@YEAR DOY   DAS   DAP   L#SD   GSTD   LAID   LWAD   SWAD   GWAD   RWAD   VWAD   CWAD   G#AD    GWGD   HIAD   PWAD   P#AD   WSPD   WSGD   NSTD  PST1A  PST2A   KSTD   EWSD    LN%D   SH%D   HIPD   PWDD   PWTD   SLAD   CHTD   CWID   NWAD   RDPD    RL1D    RL2D    RL3D    RL4D    RL5D    RL6D    RL7D    RL8D    RL9D   RL10D    SNW0C   SNW1C
 1980 106    15     0    0.0      0  0.000      0      0      0      0      0      0      0     0.0  0.000      0      0  0.000  0.000  0.000  0.000  0.000  0.000  0.000    0.00   0.00   0.00      0      0    0.0   0.00   0.00    0.0   0.00    0.00    0.00    0.00    0.00    0.00    0.00    0.00    0.00    0.00    0.00        0       0
 1980 107    16     1    0.0      0  0.000      0      0      0      0      0      0      0     0.0  0.000      0      0  0.000  0.000  0.000  0.000  0.000  0.000  0.000    0.00   0.00   0.00      0      0    0.0   0.00   0.00    0.0   0.00    0.00    0.00    0.00    0.00    0.00    0.00    0.00    0.00    0.00    0.00        0       0
 1980 108    17     2    0.0      0  0.000      0      0      0      0      0      0      0     0.0  0.000      0      0  0.000  0.000  0.000  0.000  0.000  0.000  0.000    0.00   0.00   0.00      0      0    0.0   0.00   0.00    0.0   0.00    0.00    0.00    0.00    0.00    0.00    0.00    0.00    0.00    0.00    0.00        0       0
 1980 109    18     3    0.0      0  0.000      0      0      0      0      0      0      0     0.0  0.000      0      0  0.000  0.000  0.000  0.000  0.000  0.000  0.000    0.00   0.00   0.00      0      0    0.0   0.00   0.00    0.0   0.00    0.00    0.00    0.00    0.00    0.00    0.00    0.00    0.00    0.00    0.00        0       0
 1980 110    19     4    0.0      0  0.000      0      0      0      0      0      0      0     0.0  0.000      0      0  0.000  0.000  0.000  0.000  0.000  0.000  0.000    0.00   0.00   0.00      0      0    0.0   0.00   0.00    0.0   0.00    0.00    0.00    0.00    0.00    0.00    0.00    0.00    0.00    0.00    0.00        0       0
 1980 111    20     5    0.2      0  0.079     31     13      0     43     44     44      0     0.0  0.000      0      0  0.000  0.000  0.000  0.000  0.000  0.000  0.000    3.84   0.00   0.00      0      0  256.8   0.04   0.03    0.0   0.27    0.15    0.15    0.15    0.00    0.00    0.00    0.00    0.00    0.00    0.00        0       1
 1980 112    21     6    0.5      0  0.082     31     14      0     50     45     45      0     0.0  0.000      0      0  0.000  0.000  0.646  0.000  0.000  0.000  0.000    3.78   0.00   0.00      0      0  261.8   0.05   0.03    0.0   0.29    0.18    0.18    0.17    0.01    0.00    0.00    0.00    0.00    0.00    0.00        0       2
 1980 113    22     7    0.8      0  0.085     32     15      0     59     47     47      0     0.0  0.000      0      0  0.000  0.000  0.737  0.000  0.000  0.000  0.000    3.72   0.00   0.00      0      0  265.6   0.07   0.04    0.0   0.32    0.21    0.21    0.20    0.02    0.00    0.00    0.00    0.00    0.00    0.00        0       3
 1980 114    23     8    1.1      0  0.088     33     16      0     67     49     49      0     0.0  0.000      0      0  0.000  0.000  0.546  0.000  0.000  0.000  0.000    3.71   0.00   0.00      0      0  271.5   0.08   0.05    0.0   0.34    0.24    0.24    0.21    0.03    0.00    0.00    0.00    0.00    0.00    0.00        0       4
 1980 115    24     9    1.4      0  0.092     33     18      0     74     51     51      0     0.0  0.000      0      0  0.000  0.000  0.519  0.000  0.000  0.000  0.000    3.68   0.00   0.00      0      0  278.2   0.09   0.05    0.0   0.36    0.26    0.26    0.23    0.05    0.00    0.00    0.00    0.00    0.00    0.00        1       6
 1980 116    25    10    1.7      0  0.098     34     22      0     79     56     56      0     0.0  0.000      0      0  0.000  0.000  0.303  0.000  0.000  0.000  0.000    3.66   0.00   0.00      0      0  285.5   0.10   0.06    0.0   0.38    0.28    0.28    0.24    0.06    0.00    0.00    0.00    0.00    0.00    0.00        1       7
 1980 117    26    11    2.0      0  0.114     37     25      0     82     62     62      0     0.0  0.000      0      0  0.000  0.000  0.204  0.000  0.000  0.000  0.000    3.63   0.00   0.00      0      0  308.2   0.11   0.07    0.0   0.40    0.28    0.28    0.25    0.06    0.00    0.00    0.00    0.00    0.00    0.00        2       9
 1980 118    27    12    2.3      0  0.141     44     28      0     82     72     72      0     0.0  0.000      0      0  0.000  0.000  0.000  0.000  0.000  0.000  0.000    3.61   0.00   0.00      0      0  323.5   0.11   0.08    0.0   0.42    0.29    0.29    0.25    0.06    0.00    0.00    0.00    0.00    0.00    0.00        2      11
 1980 119    28    13    2.6      0  0.168     49     34      0     84     83     83      0     0.0  0.000      0      0  0.000  0.000  0.000  0.000  0.000  0.000  0.000    3.56   0.00   0.00      0      0  339.2   0.12   0.08    0.0   0.44    0.29    0.29    0.25    0.07    0.01    0.00    0.00    0.00    0.00    0.00        3      12
 1980 120    29    14    2.9      0  0.206     57     39      0     85     96     96      0     0.0  0.000      0      0  0.000  0.000  0.000  0.000  0.000  0.000  0.000    3.53   0.00   0.00      0      0  358.4   0.13   0.09    0.0   0.46    0.29    0.29    0.25    0.07    0.01    0.00    0.00    0.00    0.00    0.00        3      14
 1980 121    30    15    3.2      0  0.258     70     42      0     85    113    113      0     0.0  0.000      0      0  0.000  0.000  0.000  0.000  0.000  0.000  0.000    3.53   0.00   0.00      0      0  367.5   0.14   0.10    0.0   0.49    0.29    0.29    0.25    0.07    0.01    0.00    0.00    0.00    0.00    0.00        4      16
 1980 122    31    16    3.5      0  0.313     81     49      0     86    131    131      0     0.0  0.000      0      0  0.000  0.000  0.000  0.000  0.000  0.000  0.000    3.52   0.00   0.00      0      0  385.3   0.15   0.12    0.0   0.51    0.29    0.29    0.25    0.07    0.01    0.00    0.00    0.00    0.00    0.00        5      18
 1980 123    32    17    3.8      0  0.365     93     59      0     88    152    152      0     0.0  0.000      0      0  0.000  0.000  0.000  0.000  0.000  0.000  0.000    3.52   0.00   0.00      0      0  390.6   0.16   0.14    0.0   0.53    0.30    0.30    0.25    0.08    0.02    0.00    0.00    0.00    0.00    0.00        5      19
 1980 124    33    18    4.1      0  0.417    105     72      0     90    177    177      0     0.0  0.000      0      0  0.000  0.000  0.000  0.000  0.000  0.000  0.000    3.51   0.00   0.00      0      0  395.5   0.17   0.16    0.0   0.54    0.30    0.30    0.26    0.08    0.02    0.00    0.00    0.00    0.00    0.00        6      21
 1980 125    34    19    4.4      0  0.493    122     83      0     92    206    206      0     0.0  0.000      0      0  0.000  0.000  0.000  0.000  0.000  0.000  0.000    3.52   0.00   0.00      0      0  402.4   0.19   0.18    0.0   0.56    0.31    0.31    0.26    0.09    0.02    0.00    0.00    0.00    0.00    0.00        8      23
 1980 126    35    20    4.7      0  0.604    148     92      0     93    240    240      0     0.0  0.000      0      0  0.000  0.000  0.000  0.000  0.000  0.000  0.000    3.54   0.00   0.00      0      0  407.6   0.20   0.20    0.0   0.58    0.31    0.31    0.26    0.09    0.03    0.00    0.00    0.00    0.00    0.00        9      25
 1980 127    36    21    5.0      0  0.739    178    102      0     94    280    280      0     0.0  0.000      0      0  0.000  0.000  0.000  0.000  0.000  0.000  0.000    3.55   0.00   0.00      0      0  416.4   0.22   0.22    0.0   0.60    0.31    0.31    0.26    0.09    0.03    0.00    0.00    0.00    0.00    0.00       11      27
 1980 128    37    22    5.3      0  0.869    207    120      0     98    327    327      0     0.0  0.000      0      0  0.000  0.000  0.000  0.000  0.000  0.000  0.000    3.56   0.00   0.00      0      0  419.2   0.24   0.25    0.0   0.62    0.32    0.32    0.27    0.10    0.03    0.01    0.00    0.00    0.00    0.00       13      29
 1980 129    38    23    5.6      0  1.018    241    140      0    102    381    381      0     0.0  0.000      0      0  0.000  0.000  0.000  0.000  0.000  0.000  0.000    3.56   0.00   0.00      0      0  422.5   0.26   0.27    0.0   0.64    0.33    0.33    0.27    0.10    0.04    0.01    0.00    0.00    0.00    0.00       15      31
 1980 130    39    24    5.9      1  1.173    278    164      0    107    442    442      0     0.0  0.000      0      0  0.000  0.000  0.000  0.000  0.000  0.000  0.000    3.57   0.00   0.00      0      0  422.0   0.28   0.29    0.0   0.65    0.34    0.34    0.28    0.11    0.04    0.01    0.00    0.00    0.00    0.00       18      33
 1980 131    40    25    6.2      1  1.340    319    193      0    113    512    512      0     0.0  0.000      0      0  0.000  0.000  0.000  0.000  0.000  0.000  0.000    3.57   0.00   0.00      0      0  420.0   0.31   0.31    0.0   0.67    0.35    0.35    0.29    0.12    0.05    0.02    0.00    0.00    0.00    0.00       21      36
 1980 132    41    26    6.5      1  1.489    361    227      0    120    588    588      0     0.0  0.000      0      0  0.000  0.000  0.000  0.000  0.000  0.000  0.000    3.60   0.00   0.00      0      0  412.6   0.34   0.33    0.0   0.69    0.37    0.37    0.30    0.13    0.06    0.02    0.00    0.00    0.00    0.00       29      38
 1980 133    42    27    6.8      3  1.613    398    263      0    127    662    662      0     0.0  0.000      0      0  0.000  0.000  0.000  0.000  0.000  0.000  0.000    3.66   0.00   0.00      0      0  404.8   0.37   0.36    0.0   0.71    0.38    0.38    0.31    0.13    0.06    0.03    0.00    0.00    0.00    0.00       46      41
 1980 134    43    28    7.1      3  1.727    427    296      0    133    723    725      0     0.0  0.000      3      3  0.000  0.000  0.000  0.000  0.000  0.000  0.000    3.71   0.00   0.00      0      3  404.7   0.40   0.38    0.0   0.72    0.40    0.40    0.32    0.14    0.07    0.03    0.00    0.00    0.00    0.00       66      44
 1980 135    44    29    7.4      3  1.812    456    334      0    140    790    802      0     0.0  0.000     12     10  0.000  0.000  0.000  0.000  0.000  0.000  0.000    3.76   0.00   0.01      0     12  397.0   0.43   0.40    0.0   0.74    0.41    0.41    0.33    0.15    0.08    0.03    0.01    0.00    0.00    0.00       88      46
 1980 136    45    30    7.7      3  1.865    480    370      0    146    850    878      0     0.0  0.000     27     19  0.000  0.000  0.000  0.000  0.000  0.000  0.000    3.82   0.00   0.03      0     27  388.4   0.46   0.42    0.0   0.76    0.43    0.43    0.34    0.16    0.08    0.04    0.01    0.00    0.00    0.00      112      49
 1980 137    46    31    7.9      3  1.891    503    410      0    152    913    963      0     0.0  0.000     50     27  0.000  0.000  0.000  0.000  0.000  0.000  0.000    3.88   0.00   0.05      0     50  375.9   0.49   0.44    0.0   0.77    0.44    0.44    0.35    0.17    0.09    0.04    0.01    0.00    0.00    0.00      139      52
 1980 138    47    32    8.2      3  1.935    531    452      0    158    983   1064      0     0.0  0.000     80     37  0.000  0.000  0.000  0.000  0.000  0.000  0.000    3.88   0.00   0.08      0     80  364.4   0.52   0.46    0.0   0.79    0.45    0.45    0.36    0.18    0.10    0.04    0.01    0.00    0.00    0.00      154      56
 1980 139    48    33    8.5      3  1.974    558    495      0    163   1053   1171      0     0.0  0.000    118     46  0.000  0.000  0.000  0.000  0.000  0.000  0.000    3.87   0.00   0.10      0    118  353.8   0.55   0.48    0.0   0.81    0.46    0.46    0.37    0.18    0.10    0.05    0.02    0.00    0.00    0.00      166      59
 1980 140    49    34    8.8      5  2.002    582    535      0    167   1116   1281      0     0.0  0.000    164     56  0.000  0.000  0.000  0.000  0.000  0.000  0.000    3.85   0.00   0.13      0    164  344.1   0.58   0.50    0.0   0.82    0.47    0.47    0.38    0.19    0.10    0.05    0.02    0.00    0.00    0.00      177      62
 1980 141    50    35    9.1      5  2.020    604    575      0    172   1180   1396     10     0.0  0.000    217     66  0.000  0.000  0.000  0.000  0.000  0.000  0.000    3.83   0.00   0.16      0    217  334.2   0.61   0.52    0.0   0.84    0.48    0.48    0.38    0.19    0.11    0.05    0.02    0.00    0.00    0.00      188      66
 1980 142    51    36    9.5      5  2.022    618    607      4    174   1225   1504     34    11.8  0.003    279     76  0.000  0.000  0.000  0.000  0.000  0.000  0.000    3.80   1.45   0.19      0    279  327.3   0.64   0.54    0.0   0.86    0.48    0.48    0.38    0.20    0.11    0.05    0.02    0.00    0.00    0.00      201      70
 1980 143    52    37    9.5      5  2.018    629    636     17    175   1266   1617     62    27.7  0.011    352     87  0.000  0.000  0.000  0.000  0.000  0.000  0.000    3.78   4.87   0.22      0    352  320.8   0.67   0.55    0.0   0.87    0.49    0.49    0.38    0.20    0.11    0.06    0.02    0.00    0.00    0.00      213      74
 1980 144    53    38    9.5      5  2.001    634    659     41    176   1293   1726    121    33.7  0.024    433     97  0.000  0.000  0.000  0.000  0.000  0.000  0.000    3.76   9.42   0.25      0    433  315.5   0.71   0.57    0.0   0.89    0.49    0.49    0.38    0.20    0.11    0.06    0.03    0.00    0.00    0.00      230      77
 1980 145    54    39    9.5      5  1.964    626    663     88    174   1289   1832    153    57.4  0.048    542    107  0.000  0.000  0.000  0.000  0.000  0.000  0.000    3.70  16.14   0.30      0    542  313.6   0.74   0.59    0.0   0.91    0.48    0.48    0.38    0.20    0.11    0.06    0.03    0.00    0.00    0.00      244      81
 1980 146    55    40    9.5      5  1.923    616    664    145    171   1279   1940    185    78.1  0.075    660    118  0.000  0.000  0.000  0.000  0.000  0.000  0.000    3.64  21.93   0.34      0    660  312.3   0.74   0.59    0.0   0.92    0.47    0.47    0.37    0.19    0.11    0.06    0.03    0.00    0.00    0.00      259      85
 1980 147    56    41    9.5      5  1.876    598    653    217    167   1251   2043    220    98.8  0.106    792    128  0.000  0.000  0.000  0.000  0.000  0.000  0.000    3.58  27.45   0.39      0    792  313.6   0.74   0.59    0.0   0.92    0.46    0.46    0.37    0.19    0.11    0.05    0.03    0.00    0.00    0.00      275      88
 1980 148    57    42    9.5      5  1.825    579    641    302    163   1220   2144    254   118.9  0.141    923    136  0.000  0.000  0.000  0.000  0.000  0.000  0.000    3.51  32.75   0.43      0    923  314.9   0.74   0.59    0.0   0.92    0.45    0.45    0.36    0.19    0.11    0.05    0.02    0.00    0.00    0.00      291      92
 1980 149    58    43    9.5      5  1.769    560    629    400    159   1189   2243    290   137.6  0.178   1055    142  0.000  0.000  0.000  0.000  0.000  0.000  0.000    3.43  37.88   0.47      0   1055  316.2   0.74   0.59    0.0   0.94    0.44    0.44    0.35    0.18    0.11    0.05    0.02    0.00    0.00    0.00      309      96
 1980 150    59    44    9.5      5  1.713    539    617    511    155   1156   2344    327   156.4  0.218   1188    145  0.000  0.000  0.000  0.000  0.000  0.000  0.000    3.34  43.01   0.51      0   1188  317.6   0.74   0.59    0.0   0.96    0.43    0.43    0.34    0.18    0.10    0.05    0.02    0.00    0.00    0.00      327      99
 1980 151    60    45    9.5      5  1.653    518    604    639    152   1123   2438    364   175.9  0.262   1315    147  0.000  0.000  0.000  0.000  0.000  0.000  0.000    3.24  48.62   0.54      0   1315  319.1   0.74   0.59    0.0   0.96    0.43    0.43    0.34    0.17    0.10    0.05    0.02    0.00    0.00    0.00      345     102
 1980 152    61    46    9.5      7  1.599    499    593    779    148   1092   2531    392   198.9  0.308   1439    145  0.000  0.000  0.000  0.000  0.000  0.000  0.000    3.13  54.12   0.57      0   1439  320.5   0.74   0.59    0.0   0.96    0.42    0.42    0.33    0.17    0.10    0.05    0.02    0.00    0.00    0.00      370     106
 1980 153    62    47    9.5      7  1.181    367    549    905    145    916   2474    392   231.2  0.366   1558    145  0.000  0.000  0.000  0.000  0.000  0.000  0.000    2.95  58.08   0.63      0   1558  322.0   0.74   0.59    0.0   0.96    0.41    0.41    0.32    0.17    0.10    0.05    0.02    0.00    0.00    0.00      532     109
 1980 154    63    48    9.5      7  0.875    271    517    997    142    787   2427    395   252.4  0.411   1640    135  0.000  0.000  0.000  0.000  0.000  0.000  0.000    2.81  60.83   0.68      0   1640  323.4   0.74   0.59    0.0   0.96    0.40    0.40    0.32    0.16    0.10    0.05    0.02    0.00    0.00    0.00      656     111
 1980 155    64    49    9.5      7  0.648    200    492   1082    139    691   2409    395   273.7  0.449   1718    126  0.000  0.000  0.000  0.000  0.000  0.000  0.000    2.65  62.95   0.71      0   1718  324.8   0.74   0.59    0.0   0.96    0.39    0.39    0.31    0.16    0.09    0.05    0.02    0.00    0.00    0.00      744     114
 1980 156    65    50    9.5      7  0.480    147    472   1146    136    619   2396    395   289.9  0.478   1776    120  0.000  0.000  0.000  0.000  0.000  0.000  0.000    2.50  64.49   0.74      0   1776  326.2   0.74   0.59    0.0   0.96    0.38    0.38    0.30    0.16    0.09    0.05    0.02    0.00    0.00    0.00      809     117
 1980 157    66    51    9.5      7  0.357    109    457   1194    133    566   2385    395   302.1  0.500   1819    115  0.000  0.000  0.000  0.000  0.000  0.000  0.000    2.37  65.62   0.76      0   1819  327.7   0.74   0.59    0.0   0.96    0.38    0.38    0.30    0.15    0.09    0.04    0.02    0.00    0.00    0.00      857     120
 1980 158    67    52    9.5      7  0.265     80    445   1229    130    525   2374    395   310.9  0.517   1849    113  0.000  0.000  0.000  0.000  0.000  0.000  0.000    2.24  66.45   0.78      0   1849  329.1   0.74   0.59    0.0   0.96    0.37    0.37    0.29    0.15    0.09    0.04    0.02    0.00    0.00    0.00      892     123
 1980 159    68    53    9.5      7  0.197     60    435   1254    127    495   2364    395   317.3  0.530   1869    113  0.000  0.000  0.000  0.000  0.000  0.000  0.000    2.12  67.07   0.79      0   1869  330.5   0.74   0.59    0.0   0.96    0.36    0.36    0.28    0.15    0.09    0.04    0.02    0.00    0.00    0.00      919     125
 1980 160    69    54    9.5      7  0.147     44    428   1270    124    472   2354    395   321.3  0.539   1882    113  0.000  0.000  0.000  0.000  0.000  0.000  0.000    2.05  67.47   0.80      0   1882  331.8   0.74   0.59    0.0   0.96    0.35    0.35    0.28    0.14    0.08    0.04    0.02    0.00    0.00    0.00      938     128
 1980 161    70    55    9.5      8  0.110     33    422   1279    121    455   2344    395   323.5  0.546   1888    113  0.000  0.000  0.000  0.000  0.000  0.000  0.000    2.01  67.71   0.81      0   1888  333.1   0.74   0.59    0.0   0.98    0.34    0.34    0.27    0.14    0.08    0.04    0.02    0.00    0.00    0.00      952     131

*DSSAT Cropping System Model Ver. 4.6.1.000 -release      JUL 11, 2017; 16:24:43
                                                                                
*RUN   2        : SIM                       CRGRO046 1\000001    1              
 MODEL          : CRGRO046 - Dry bean                                           
 EXPERIMENT     : 1\000001 BN PALMIRA_ANALISIS SENSIBILIDAD                     
 DATA PATH      : D:\B\0\00000                                                  
 TREATMENT  1   : SIM                       CRGRO046                            
  
!                                                                                                                                                                                                                                                    Root Dens. (cm/cm3) by soil depth (cm):
!                                                                                                                                                                                                                                                    0-5    5-15   15-25   25-35   35-50   50-65   65-80   80-99  99-122 122-209
@YEAR DOY   DAS   DAP   L#SD   GSTD   LAID   LWAD   SWAD   GWAD   RWAD   VWAD   CWAD   G#AD    GWGD   HIAD   PWAD   P#AD   WSPD   WSGD   NSTD  PST1A  PST2A   KSTD   EWSD    LN%D   SH%D   HIPD   PWDD   PWTD   SLAD   CHTD   CWID   NWAD   RDPD    RL1D    RL2D    RL3D    RL4D    RL5D    RL6D    RL7D    RL8D    RL9D   RL10D    SNW0C   SNW1C
 1981 106    15     0    0.0      0  0.000      0      0      0      0      0      0      0     0.0  0.000      0      0  0.000  0.000  0.000  0.000  0.000  0.000  0.000    0.00   0.00   0.00      0      0    0.0   0.00   0.00    0.0   0.00    0.00    0.00    0.00    0.00    0.00    0.00    0.00    0.00    0.00    0.00        0       0
 1981 107    16     1    0.0      0  0.000      0      0      0      0      0      0      0     0.0  0.000      0      0  0.000  0.000  0.000  0.000  0.000  0.000  0.000    0.00   0.00   0.00      0      0    0.0   0.00   0.00    0.0   0.00    0.00    0.00    0.00    0.00    0.00    0.00    0.00    0.00    0.00    0.00        0       0
 1981 108    17     2    0.0      0  0.000      0      0      0      0      0      0      0     0.0  0.000      0      0  0.000  0.000  0.000  0.000  0.000  0.000  0.000    0.00   0.00   0.00      0      0    0.0   0.00   0.00    0.0   0.00    0.00    0.00    0.00    0.00    0.00    0.00    0.00    0.00    0.00    0.00        0       0
 1981 109    18     3    0.0      0  0.000      0      0      0      0      0      0      0     0.0  0.000      0      0  0.000  0.000  0.000  0.000  0.000  0.000  0.000    0.00   0.00   0.00      0      0    0.0   0.00   0.00    0.0   0.00    0.00    0.00    0.00    0.00    0.00    0.00    0.00    0.00    0.00    0.00        0       0
 1981 110    19     4    0.0      0  0.000      0      0      0      0      0      0      0     0.0  0.000      0      0  0.000  0.000  0.000  0.000  0.000  0.000  0.000    0.00   0.00   0.00      0      0    0.0   0.00   0.00    0.0   0.00    0.00    0.00    0.00    0.00    0.00    0.00    0.00    0.00    0.00    0.00        0       0
 1981 111    20     5    0.2      0  0.079     31     13      0     43     44     44      0     0.0  0.000      0      0  0.000  0.000  0.000  0.000  0.000  0.000  0.000    3.84   0.00   0.00      0      0  256.6   0.04   0.03    0.0   0.27    0.15    0.15    0.15    0.00    0.00    0.00    0.00    0.00    0.00    0.00        0       1
 1981 112    21     6    0.5      0  0.082     31     14      0     51     45     45      0     0.0  0.000      0      0  0.000  0.000  0.653  0.000  0.000  0.000  0.000    3.78   0.00   0.00      0      0  261.6   0.05   0.03    0.0   0.29    0.18    0.18    0.18    0.01    0.00    0.00    0.00    0.00    0.00    0.00        0       2
 1981 113    22     7    0.8      0  0.084     32     15      0     59     46     46      0     0.0  0.000      0      0  0.000  0.000  0.742  0.000  0.000  0.000  0.000    3.73   0.00   0.00      0      0  265.1   0.06   0.04    0.0   0.31    0.21    0.21    0.20    0.02    0.00    0.00    0.00    0.00    0.00    0.00        0       3
 1981 114    23     8    1.1      0  0.087     32     16      0     67     48     48      0     0.0  0.000      0      0  0.000  0.000  0.576  0.000  0.000  0.000  0.000    3.71   0.00   0.00      0      0  270.8   0.07   0.04    0.0   0.33    0.24    0.24    0.22    0.03    0.00    0.00    0.00    0.00    0.00    0.00        0       4
 1981 115    24     9    1.3      0  0.091     33     18      0     74     51     51      0     0.0  0.000      0      0  0.000  0.000  0.498  0.000  0.000  0.000  0.000    3.68   0.00   0.00      0      0  276.8   0.08   0.05    0.0   0.36    0.26    0.26    0.23    0.04    0.00    0.00    0.00    0.00    0.00    0.00        1       6
 1981 116    25    10    1.7      0  0.096     34     21      0     80     54     54      0     0.0  0.000      0      0  0.000  0.000  0.437  0.000  0.000  0.000  0.000    3.66   0.00   0.00      0      0  285.0   0.09   0.06    0.0   0.38    0.28    0.28    0.25    0.06    0.00    0.00    0.00    0.00    0.00    0.00        1       7
 1981 117    26    11    1.9      0  0.107     35     23      0     84     59     59      0     0.0  0.000      0      0  0.000  0.000  0.290  0.000  0.000  0.000  0.000    3.64   0.00   0.00      0      0  303.6   0.10   0.07    0.0   0.40    0.29    0.29    0.25    0.06    0.00    0.00    0.00    0.00    0.00    0.00        2       9
 1981 118    27    12    2.2      0  0.129     41     26      0     84     67     67      0     0.0  0.000      0      0  0.000  0.000  0.000  0.000  0.000  0.000  0.000    3.64   0.00   0.00      0      0  314.7   0.11   0.07    0.0   0.42    0.29    0.29    0.25    0.06    0.00    0.00    0.00    0.00    0.00    0.00        2      10
 1981 119    28    13    2.5      0  0.157     47     31      0     85     78     78      0     0.0  0.000      0      0  0.000  0.000  0.000  0.000  0.000  0.000  0.000    3.58   0.00   0.00      0      0  332.8   0.12   0.08    0.0   0.44    0.30    0.30    0.25    0.07    0.01    0.00    0.00    0.00    0.00    0.00        2      12
 1981 120    29    14    2.8      0  0.183     53     37      0     87     90     90      0     0.0  0.000      0      0  0.000  0.000  0.000  0.000  0.000  0.000  0.000    3.55   0.00   0.00      0      0  347.2   0.12   0.09    0.0   0.46    0.30    0.30    0.26    0.07    0.01    0.00    0.00    0.00    0.00    0.00        3      14
 1981 121    30    15    3.1      0  0.236     64     40      0     87    104    104      0     0.0  0.000      0      0  0.000  0.000  0.000  0.000  0.000  0.000  0.000    3.54   0.00   0.00      0      0  367.4   0.13   0.10    0.0   0.48    0.30    0.30    0.26    0.07    0.01    0.00    0.00    0.00    0.00    0.00        4      16
 1981 122    31    16    3.4      0  0.290     76     46      0     87    122    122      0     0.0  0.000      0      0  0.000  0.000  0.000  0.000  0.000  0.000  0.000    3.53   0.00   0.00      0      0  379.3   0.14   0.11    0.0   0.50    0.30    0.30    0.26    0.07    0.01    0.00    0.00    0.00    0.00    0.00        4      17
 1981 123    32    17    3.7      0  0.343     88     54      0     89    142    142      0     0.0  0.000      0      0  0.000  0.000  0.000  0.000  0.000  0.000  0.000    3.52   0.00   0.00      0      0  388.7   0.15   0.13    0.0   0.52    0.30    0.30    0.26    0.08    0.02    0.00    0.00    0.00    0.00    0.00        5      19
 1981 124    33    18    3.9      0  0.394     99     66      0     91    165    165      0     0.0  0.000      0      0  0.000  0.000  0.000  0.000  0.000  0.000  0.000    3.51   0.00   0.00      0      0  397.7   0.17   0.15    0.0   0.54    0.31    0.31    0.26    0.08    0.02    0.00    0.00    0.00    0.00    0.00        6      21
 1981 125    34    19    4.2      0  0.445    110     80      0     94    190    190      0     0.0  0.000      0      0  0.000  0.000  0.000  0.000  0.000  0.000  0.000    3.51   0.00   0.00      0      0  403.5   0.18   0.17    0.0   0.56    0.31    0.31    0.26    0.09    0.02    0.00    0.00    0.00    0.00    0.00        7      23
 1981 126    35    20    4.5      0  0.548    131     87      0     94    218    218      0     0.0  0.000      0      0  0.000  0.000  0.000  0.000  0.000  0.000  0.000    3.53   0.00   0.00      0      0  417.2   0.19   0.19    0.0   0.57    0.31    0.31    0.26    0.09    0.03    0.00    0.00    0.00    0.00    0.00        8      25
 1981 127    36    21    4.8      0  0.670    159     96      0     95    254    254      0     0.0  0.000      0      0  0.000  0.000  0.000  0.000  0.000  0.000  0.000    3.55   0.00   0.00      0      0  421.8   0.21   0.21    0.0   0.59    0.32    0.32    0.26    0.09    0.03    0.00    0.00    0.00    0.00    0.00       10      27
 1981 128    37    22    5.0      0  0.767    181    108      0     98    289    289      0     0.0  0.000      0      0  0.000  0.000  0.000  0.000  0.000  0.000  0.000    3.55   0.00   0.00      0      0  423.7   0.22   0.23    0.0   0.61    0.32    0.32    0.27    0.09    0.03    0.00    0.00    0.00    0.00    0.00       11      28
 1981 129    38    23    5.3      0  0.893    210    126      0    101    336    336      0     0.0  0.000      0      0  0.000  0.000  0.000  0.000  0.000  0.000  0.000    3.56   0.00   0.00      0      0  424.4   0.24   0.24    0.0   0.62    0.33    0.33    0.27    0.10    0.04    0.01    0.00    0.00    0.00    0.00       13      30
 1981 130    39    24    5.6      0  1.045    244    146      0    105    389    389      0     0.0  0.000      0      0  0.000  0.000  0.000  0.000  0.000  0.000  0.000    3.56   0.00   0.00      0      0  429.2   0.26   0.26    0.0   0.64    0.34    0.34    0.28    0.10    0.04    0.01    0.00    0.00    0.00    0.00       16      32
 1981 131    40    25    5.9      1  1.209    280    170      0    110    450    450      0     0.0  0.000      0      0  0.000  0.000  0.000  0.000  0.000  0.000  0.000    3.57   0.00   0.00      0      0  431.8   0.28   0.29    0.0   0.66    0.35    0.35    0.29    0.11    0.05    0.01    0.00    0.00    0.00    0.00       18      35
 1981 132    41    26    6.2      1  1.369    321    200      0    116    520    520      0     0.0  0.000      0      0  0.000  0.000  0.000  0.000  0.000  0.000  0.000    3.57   0.00   0.00      0      0  427.0   0.31   0.31    0.0   0.67    0.36    0.36    0.30    0.12    0.05    0.02    0.00    0.00    0.00    0.00       21      37
 1981 133    42    27    6.5      3  1.520    362    233      0    123    595    595      0     0.0  0.000      0      0  0.000  0.000  0.000  0.000  0.000  0.000  0.000    3.59   0.00   0.00      0      0  420.0   0.33   0.33    0.0   0.69    0.38    0.38    0.31    0.13    0.06    0.02    0.00    0.00    0.00    0.00       29      39
 1981 134    43    28    6.8      3  1.640    398    270      0    130    668    668      0     0.0  0.000      0      0  0.000  0.000  0.000  0.000  0.000  0.000  0.000    3.65   0.00   0.00      0      0  411.8   0.36   0.35    0.0   0.71    0.39    0.39    0.32    0.14    0.07    0.03    0.00    0.00    0.00    0.00       46      42
 1981 135    44    29    7.1      3  1.732    434    309      0    137    743    746      0     0.0  0.000      3      3  0.000  0.000  0.000  0.000  0.000  0.000  0.000    3.71   0.00   0.00      0      3  399.2   0.39   0.37    0.0   0.72    0.41    0.41    0.33    0.15    0.07    0.03    0.00    0.00    0.00    0.00       65      45
 1981 136    45    30    7.3      3  1.808    459    345      0    143    804    816      0     0.0  0.000     12     11  0.000  0.000  0.000  0.000  0.000  0.000  0.000    3.77   0.00   0.02      0     12  393.4   0.42   0.39    0.0   0.74    0.42    0.42    0.34    0.16    0.08    0.03    0.01    0.00    0.00    0.00       88      47
 1981 137    46    31    7.6      3  1.859    485    384      0    150    869    898      0     0.0  0.000     29     19  0.000  0.000  0.000  0.000  0.000  0.000  0.000    3.82   0.00   0.03      0     29  382.9   0.45   0.41    0.0   0.76    0.44    0.44    0.35    0.16    0.09    0.04    0.01    0.00    0.00    0.00      112      50
 1981 138    47    32    7.9      3  1.881    506    423      0    156    930    982      0     0.0  0.000     52     28  0.000  0.000  0.000  0.000  0.000  0.000  0.000    3.88   0.00   0.05      0     52  371.5   0.48   0.44    0.0   0.77    0.45    0.45    0.36    0.17    0.09    0.04    0.01    0.00    0.00    0.00      139      54
 1981 139    48    33    8.2      3  1.919    533    465      0    162    998   1082      0     0.0  0.000     83     38  0.000  0.000  0.000  0.000  0.000  0.000  0.000    3.89   0.00   0.08      0     83  359.9   0.51   0.45    0.0   0.79    0.46    0.46    0.37    0.18    0.10    0.04    0.01    0.00    0.00    0.00      155      57
 1981 140    49    34    8.5      5  1.956    560    508      0    167   1068   1190      0     0.0  0.000    121     47  0.000  0.000  0.000  0.000  0.000  0.000  0.000    3.87   0.00   0.10      0    121  349.2   0.54   0.47    0.0   0.81    0.47    0.47    0.38    0.19    0.10    0.05    0.02    0.00    0.00    0.00      167      60
 1981 141    50    35    8.8      5  1.983    583    549      0    171   1132   1300      0     0.0  0.000    167     57  0.000  0.000  0.000  0.000  0.000  0.000  0.000    3.85   0.00   0.13      0    167  339.8   0.57   0.49    0.0   0.82    0.48    0.48    0.38    0.19    0.11    0.05    0.02    0.00    0.00    0.00      178      64
 1981 142    51    36    9.1      5  1.999    604    588      0    175   1193   1413     11     0.0  0.000    220     67  0.000  0.000  0.000  0.000  0.000  0.000  0.000    3.83   0.00   0.16      0    220  330.8   0.60   0.51    0.0   0.84    0.49    0.49    0.39    0.20    0.11    0.05    0.02    0.00    0.00    0.00      189      68
 1981 143    52    37    9.4      5  2.001    617    618      4    177   1236   1520     37    11.3  0.003    284     77  0.000  0.000  0.000  0.000  0.000  0.000  0.000    3.81   1.48   0.19      0    284  324.1   0.64   0.53    0.0   0.86    0.49    0.49    0.39    0.20    0.11    0.05    0.02    0.00    0.00    0.00      201      71
 1981 144    53    38    9.4      5  1.994    626    644     19    178   1270   1630     64    29.4  0.012    360     88  0.000  0.000  0.000  0.000  0.000  0.000  0.000    3.79   5.21   0.22      0    360  318.4   0.67   0.55    0.0   0.87    0.49    0.49    0.39    0.20    0.11    0.06    0.02    0.00    0.00    0.00      212      75
 1981 145    54    39    9.4      5  1.975    629    661     44    177   1290   1738     94    46.8  0.025    449     98  0.000  0.000  0.000  0.000  0.000  0.000  0.000    3.77   9.78   0.26      0    449  314.3   0.70   0.57    0.0   0.89    0.49    0.49    0.39    0.20    0.12    0.06    0.03    0.00    0.00    0.00      225      78
 1981 146    55    40    9.4      5  1.941    623    668     81    176   1291   1840    125    64.4  0.044    550    109  0.000  0.000  0.000  0.000  0.000  0.000  0.000    3.71  14.68   0.30      0    550  311.8   0.73   0.59    0.0   0.90    0.49    0.49    0.38    0.20    0.11    0.06    0.03    0.00    0.00    0.00      238      82
 1981 147    56    41    9.4      5  1.900    611    666    130    173   1277   1941    158    82.5  0.067    664    119  0.000  0.000  0.000  0.000  0.000  0.000  0.000    3.65  19.56   0.34      0    664  311.0   0.73   0.59    0.0   0.92    0.48    0.48    0.38    0.20    0.11    0.06    0.03    0.00    0.00    0.00      252      86
 1981 148    57    42    9.4      5  1.854    596    659    191    170   1255   2044    190   100.3  0.093    790    130  0.000  0.000  0.000  0.000  0.000  0.000  0.000    3.59  24.19   0.39      0    790  311.3   0.73   0.59    0.0   0.94    0.47    0.47    0.37    0.19    0.11    0.05    0.03    0.00    0.00    0.00      267      89
 1981 149    58    43    9.4      5  1.803    577    647    265    166   1224   2143    225   118.0  0.124    919    138  0.000  0.000  0.000  0.000  0.000  0.000  0.000    3.52  28.90   0.43      0    919  312.6   0.73   0.59    0.0   0.95    0.46    0.46    0.36    0.19    0.11    0.05    0.02    0.00    0.00    0.00      282      93
 1981 150    59    44    9.4      5  1.751    558    635    353    162   1193   2243    261   135.4  0.157   1050    144  0.000  0.000  0.000  0.000  0.000  0.000  0.000    3.44  33.63   0.47      0   1050  314.0   0.73   0.59    0.0   0.95    0.45    0.45    0.36    0.18    0.11    0.05    0.02    0.00    0.00    0.00      297      96
 1981 151    60    45    9.4      5  1.697    538    623    455    158   1162   2342    298   152.6  0.194   1180    149  0.000  0.000  0.000  0.000  0.000  0.000  0.000    3.36  38.52   0.50      0   1180  315.4   0.73   0.59    0.0   0.95    0.44    0.44    0.35    0.18    0.10    0.05    0.02    0.00    0.00    0.00      313     100
 1981 152    61    46    9.4      5  1.639    517    611    572    154   1128   2434    336   170.6  0.235   1306    150  0.000  0.000  0.000  0.000  0.000  0.000  0.000    3.26  43.82   0.54      0   1306  316.8   0.73   0.59    0.0   0.95    0.43    0.43    0.34    0.18    0.10    0.05    0.02    0.00    0.00    0.00      330     103
 1981 153    62    47    9.4      7  1.584    498    599    704    151   1097   2531    373   188.6  0.278   1434    150  0.000  0.000  0.000  0.000  0.000  0.000  0.000    3.15  49.06   0.57      0   1434  318.3   0.73   0.59    0.0   0.95    0.42    0.42    0.33    0.17    0.10    0.05    0.02    0.00    0.00    0.00      346     106
 1981 154    63    48    9.4      7  1.169    366    555    842    147    921   2472    400   210.7  0.341   1551    147  0.000  0.000  0.000  0.000  0.000  0.000  0.000    2.96  54.30   0.63      0   1551  319.7   0.73   0.59    0.0   0.95    0.42    0.42    0.33    0.17    0.10    0.05    0.02    0.00    0.00    0.00      521     110
 1981 155    64    49    9.4      7  0.864    269    522    951    144    791   2429    414   229.6  0.392   1638    140  0.000  0.000  0.000  0.000  0.000  0.000  0.000    2.79  58.07   0.67      0   1638  321.2   0.73   0.59    0.0   0.95    0.41    0.41    0.32    0.17    0.10    0.05    0.02    0.00    0.00    0.00      655     113
 1981 156    65    50    9.4      7  0.640    198    497   1035    140    696   2411    414   249.9  0.429   1715    132  0.000  0.000  0.000  0.000  0.000  0.000  0.000    2.62  60.35   0.71      0   1715  322.6   0.73   0.59    0.0   0.95    0.40    0.40    0.31    0.16    0.09    0.05    0.02    0.00    0.00    0.00      743     116
 1981 157    66    51    9.4      7  0.474    146    478   1098    137    624   2396    414   265.2  0.458   1772    125  0.000  0.000  0.000  0.000  0.000  0.000  0.000    2.47  61.98   0.74      0   1772  324.0   0.73   0.59    0.0   0.95    0.39    0.39    0.31    0.16    0.09    0.05    0.02    0.00    0.00    0.00      807     119
 1981 158    67    52    9.4      7  0.352    108    462   1142    134    571   2381    414   275.7  0.480   1810    119  0.000  0.000  0.000  0.000  0.000  0.000  0.000    2.33  63.09   0.76      0   1810  325.5   0.73   0.59    0.0   0.95    0.38    0.38    0.30    0.15    0.09    0.04    0.02    0.00    0.00    0.00      854     122
 1981 159    68    53    9.4      7  0.261     80    450   1175    131    530   2368    414   283.6  0.496   1838    119  0.000  0.000  0.000  0.000  0.000  0.000  0.000    2.21  63.93   0.78      0   1838  327.0   0.73   0.59    0.0   0.95    0.37    0.37    0.29    0.15    0.09    0.04    0.02    0.00    0.00    0.00      890     124
 1981 160    69    54    9.4      7  0.194     59    441   1199    129    500   2357    414   289.3  0.508   1857    118  0.000  0.000  0.000  0.000  0.000  0.000  0.000    2.11  64.55   0.79      0   1857  328.3   0.73   0.59    0.0   0.95    0.37    0.37    0.29    0.15    0.09    0.04    0.02    0.00    0.00    0.00      916     127
 1981 161    70    55    9.4      7  0.145     44    434   1214    126    478   2346    414   293.1  0.517   1869    118  0.000  0.000  0.000  0.000  0.000  0.000  0.000    2.05  64.96   0.80      0   1869  329.7   0.73   0.59    0.0   0.97    0.36    0.36    0.28    0.15    0.08    0.04    0.02    0.00    0.00    0.00      935     130
 1981 162    71    56    9.4      8  0.108     33    428   1223    123    461   2336    414   295.2  0.524   1875    118  0.000  0.000  0.000  0.000  0.000  0.000  0.000    2.01  65.22   0.80      0   1875  331.0   0.73   0.59    0.0   0.99    0.35    0.35    0.28    0.14    0.08    0.04    0.02    0.00    0.00    0.00      949     132

*DSSAT Cropping System Model Ver. 4.6.1.000 -release      JUL 11, 2017; 16:24:43
                                                                                
*RUN   3        : SIM                       CRGRO046 1\000001    1              
 MODEL          : CRGRO046 - Dry bean                                           
 EXPERIMENT     : 1\000001 BN PALMIRA_ANALISIS SENSIBILIDAD                     
 DATA PATH      : D:\B\0\00000                                                  
 TREATMENT  1   : SIM                       CRGRO046                            
  
!                                                                                                                                                                                                                                                    Root Dens. (cm/cm3) by soil depth (cm):
!                                                                                                                                                                                                                                                    0-5    5-15   15-25   25-35   35-50   50-65   65-80   80-99  99-122 122-209
@YEAR DOY   DAS   DAP   L#SD   GSTD   LAID   LWAD   SWAD   GWAD   RWAD   VWAD   CWAD   G#AD    GWGD   HIAD   PWAD   P#AD   WSPD   WSGD   NSTD  PST1A  PST2A   KSTD   EWSD    LN%D   SH%D   HIPD   PWDD   PWTD   SLAD   CHTD   CWID   NWAD   RDPD    RL1D    RL2D    RL3D    RL4D    RL5D    RL6D    RL7D    RL8D    RL9D   RL10D    SNW0C   SNW1C
 1982 106    15     0    0.0      0  0.000      0      0      0      0      0      0      0     0.0  0.000      0      0  0.000  0.000  0.000  0.000  0.000  0.000  0.000    0.00   0.00   0.00      0      0    0.0   0.00   0.00    0.0   0.00    0.00    0.00    0.00    0.00    0.00    0.00    0.00    0.00    0.00    0.00        0       0
 1982 107    16     1    0.0      0  0.000      0      0      0      0      0      0      0     0.0  0.000      0      0  0.000  0.000  0.000  0.000  0.000  0.000  0.000    0.00   0.00   0.00      0      0    0.0   0.00   0.00    0.0   0.00    0.00    0.00    0.00    0.00    0.00    0.00    0.00    0.00    0.00    0.00        0       0
 1982 108    17     2    0.0      0  0.000      0      0      0      0      0      0      0     0.0  0.000      0      0  0.000  0.000  0.000  0.000  0.000  0.000  0.000    0.00   0.00   0.00      0      0    0.0   0.00   0.00    0.0   0.00    0.00    0.00    0.00    0.00    0.00    0.00    0.00    0.00    0.00    0.00        0       0
 1982 109    18     3    0.0      0  0.000      0      0      0      0      0      0      0     0.0  0.000      0      0  0.000  0.000  0.000  0.000  0.000  0.000  0.000    0.00   0.00   0.00      0      0    0.0   0.00   0.00    0.0   0.00    0.00    0.00    0.00    0.00    0.00    0.00    0.00    0.00    0.00    0.00        0       0
 1982 110    19     4    0.0      0  0.000      0      0      0      0      0      0      0     0.0  0.000      0      0  0.000  0.000  0.000  0.000  0.000  0.000  0.000    0.00   0.00   0.00      0      0    0.0   0.00   0.00    0.0   0.00    0.00    0.00    0.00    0.00    0.00    0.00    0.00    0.00    0.00    0.00        0       0
 1982 111    20     5    0.2      0  0.079     31     13      0     43     44     44      0     0.0  0.000      0      0  0.000  0.000  0.000  0.000  0.000  0.000  0.000    3.84   0.00   0.00      0      0  256.8   0.04   0.03    0.0   0.27    0.15    0.15    0.15    0.00    0.00    0.00    0.00    0.00    0.00    0.00        0       1
 1982 112    21     6    0.5      0  0.082     31     14      0     51     45     45      0     0.0  0.000      0      0  0.000  0.000  0.664  0.000  0.000  0.000  0.000    3.78   0.00   0.00      0      0  261.1   0.05   0.03    0.0   0.29    0.18    0.18    0.18    0.01    0.00    0.00    0.00    0.00    0.00    0.00        0       2
 1982 113    22     7    0.8      0  0.084     32     15      0     59     46     46      0     0.0  0.000      0      0  0.000  0.000  0.741  0.000  0.000  0.000  0.000    3.73   0.00   0.00      0      0  264.7   0.06   0.04    0.0   0.31    0.21    0.21    0.20    0.02    0.00    0.00    0.00    0.00    0.00    0.00        0       3
 1982 114    23     8    1.1      0  0.088     32     16      0     67     49     49      0     0.0  0.000      0      0  0.000  0.000  0.543  0.000  0.000  0.000  0.000    3.71   0.00   0.00      0      0  270.2   0.07   0.04    0.0   0.33    0.24    0.24    0.22    0.03    0.00    0.00    0.00    0.00    0.00    0.00        0       4
 1982 115    24     9    1.4      0  0.092     33     18      0     74     51     51      0     0.0  0.000      0      0  0.000  0.000  0.485  0.000  0.000  0.000  0.000    3.69   0.00   0.00      0      0  275.5   0.08   0.05    0.0   0.36    0.26    0.26    0.23    0.04    0.00    0.00    0.00    0.00    0.00    0.00        1       6
 1982 116    25    10    1.7      0  0.097     34     21      0     80     55     55      0     0.0  0.000      0      0  0.000  0.000  0.401  0.000  0.000  0.000  0.000    3.66   0.00   0.00      0      0  283.4   0.09   0.06    0.0   0.38    0.28    0.28    0.25    0.05    0.00    0.00    0.00    0.00    0.00    0.00        1       7
 1982 117    26    11    2.0      0  0.112     38     25      0     83     63     63      0     0.0  0.000      0      0  0.000  0.000  0.118  0.000  0.000  0.000  0.000    3.65   0.00   0.00      0      0  296.9   0.10   0.07    0.0   0.40    0.29    0.29    0.25    0.06    0.00    0.00    0.00    0.00    0.00    0.00        2       9
 1982 118    27    12    2.2      0  0.134     42     28      0     84     70     70      0     0.0  0.000      0      0  0.000  0.000  0.058  0.000  0.000  0.000  0.000    3.60   0.00   0.00      0      0  321.5   0.11   0.07    0.0   0.42    0.29    0.29    0.25    0.06    0.00    0.00    0.00    0.00    0.00    0.00        2      10
 1982 119    28    13    2.5      0  0.160     47     33      0     85     80     80      0     0.0  0.000      0      0  0.000  0.000  0.000  0.000  0.000  0.000  0.000    3.57   0.00   0.00      0      0  339.5   0.12   0.08    0.0   0.44    0.30    0.30    0.25    0.07    0.01    0.00    0.00    0.00    0.00    0.00        2      12
 1982 120    29    14    2.8      0  0.189     54     39      0     87     93     93      0     0.0  0.000      0      0  0.000  0.000  0.000  0.000  0.000  0.000  0.000    3.53   0.00   0.00      0      0  351.7   0.13   0.09    0.0   0.46    0.30    0.30    0.26    0.07    0.01    0.00    0.00    0.00    0.00    0.00        3      14
 1982 121    30    15    3.1      0  0.243     66     42      0     87    108    108      0     0.0  0.000      0      0  0.000  0.000  0.000  0.000  0.000  0.000  0.000    3.53   0.00   0.00      0      0  369.7   0.14   0.10    0.0   0.48    0.30    0.30    0.25    0.07    0.01    0.00    0.00    0.00    0.00    0.00        4      16
 1982 122    31    16    3.4      0  0.298     77     48      0     87    126    126      0     0.0  0.000      0      0  0.000  0.000  0.000  0.000  0.000  0.000  0.000    3.52   0.00   0.00      0      0  384.9   0.15   0.11    0.0   0.50    0.30    0.30    0.26    0.07    0.01    0.00    0.00    0.00    0.00    0.00        4      18
 1982 123    32    17    3.7      0  0.352     90     57      0     89    147    147      0     0.0  0.000      0      0  0.000  0.000  0.000  0.000  0.000  0.000  0.000    3.51   0.00   0.00      0      0  393.1   0.16   0.13    0.0   0.52    0.30    0.30    0.26    0.08    0.02    0.00    0.00    0.00    0.00    0.00        5      19
 1982 124    33    18    4.0      0  0.407    101     69      0     91    171    171      0     0.0  0.000      0      0  0.000  0.000  0.000  0.000  0.000  0.000  0.000    3.51   0.00   0.00      0      0  400.9   0.17   0.15    0.0   0.54    0.31    0.31    0.26    0.08    0.02    0.00    0.00    0.00    0.00    0.00        6      21
 1982 125    34    19    4.3      0  0.464    114     84      0     94    197    197      0     0.0  0.000      0      0  0.000  0.000  0.000  0.000  0.000  0.000  0.000    3.50   0.00   0.00      0      0  409.0   0.18   0.17    0.0   0.56    0.31    0.31    0.26    0.09    0.02    0.00    0.00    0.00    0.00    0.00        7      23
 1982 126    35    20    4.6      0  0.572    138     92      0     94    229    229      0     0.0  0.000      0      0  0.000  0.000  0.000  0.000  0.000  0.000  0.000    3.53   0.00   0.00      0      0  414.7   0.20   0.20    0.0   0.58    0.31    0.31    0.26    0.09    0.03    0.00    0.00    0.00    0.00    0.00        9      25
 1982 127    36    21    4.9      0  0.702    166    101      0     95    267    267      0     0.0  0.000      0      0  0.000  0.000  0.000  0.000  0.000  0.000  0.000    3.55   0.00   0.00      0      0  422.0   0.22   0.22    0.0   0.60    0.32    0.32    0.26    0.09    0.03    0.00    0.00    0.00    0.00    0.00       10      27
 1982 128    37    22    5.2      0  0.831    194    117      0     99    311    311      0     0.0  0.000      0      0  0.000  0.000  0.000  0.000  0.000  0.000  0.000    3.55   0.00   0.00      0      0  428.0   0.23   0.24    0.0   0.62    0.32    0.32    0.27    0.09    0.03    0.01    0.00    0.00    0.00    0.00       12      29
 1982 129    38    23    5.5      0  0.976    226    136      0    102    361    361      0     0.0  0.000      0      0  0.000  0.000  0.000  0.000  0.000  0.000  0.000    3.56   0.00   0.00      0      0  432.6   0.26   0.26    0.0   0.63    0.33    0.33    0.27    0.10    0.04    0.01    0.00    0.00    0.00    0.00       14      31
 1982 130    39    24    5.8      1  1.133    261    158      0    107    419    419      0     0.0  0.000      0      0  0.000  0.000  0.000  0.000  0.000  0.000  0.000    3.56   0.00   0.00      0      0  434.5   0.28   0.29    0.0   0.65    0.34    0.34    0.28    0.11    0.04    0.01    0.00    0.00    0.00    0.00       17      34
 1982 131    40    25    6.1      1  1.297    300    185      0    112    485    485      0     0.0  0.000      0      0  0.000  0.000  0.000  0.000  0.000  0.000  0.000    3.57   0.00   0.00      0      0  432.1   0.30   0.31    0.0   0.67    0.35    0.35    0.29    0.11    0.05    0.01    0.00    0.00    0.00    0.00       20      36
 1982 132    41    26    6.4      1  1.457    343    217      0    119    560    560      0     0.0  0.000      0      0  0.000  0.000  0.000  0.000  0.000  0.000  0.000    3.58   0.00   0.00      0      0  425.2   0.33   0.33    0.0   0.68    0.37    0.37    0.30    0.12    0.05    0.02    0.00    0.00    0.00    0.00       24      38
 1982 133    42    27    6.7      3  1.590    379    251      0    125    630    630      0     0.0  0.000      0      0  0.000  0.000  0.000  0.000  0.000  0.000  0.000    3.64   0.00   0.00      0      0  419.7   0.36   0.35    0.0   0.70    0.38    0.38    0.31    0.13    0.06    0.02    0.00    0.00    0.00    0.00       40      41
 1982 134    43    28    7.0      3  1.698    414    289      0    133    703    705      0     0.0  0.000      3      3  0.000  0.000  0.000  0.000  0.000  0.000  0.000    3.70   0.00   0.00      0      3  410.2   0.39   0.38    0.0   0.72    0.40    0.40    0.32    0.14    0.07    0.03    0.00    0.00    0.00    0.00       59      44
 1982 135    44    29    7.3      3  1.776    445    327      0    140    772    784      0     0.0  0.000     12     11  0.000  0.000  0.000  0.000  0.000  0.000  0.000    3.76   0.00   0.02      0     12  399.1   0.42   0.40    0.0   0.74    0.42    0.42    0.33    0.15    0.08    0.03    0.01    0.00    0.00    0.00       82      46
 1982 136    45    30    7.6      3  1.825    472    367      0    146    840    866      0     0.0  0.000     27     19  0.000  0.000  0.000  0.000  0.000  0.000  0.000    3.82   0.00   0.03      0     27  386.3   0.45   0.42    0.0   0.75    0.43    0.43    0.35    0.16    0.08    0.04    0.01    0.00    0.00    0.00      107      50
 1982 137    46    31    7.9      3  1.853    495    407      0    153    902    950      0     0.0  0.000     49     27  0.000  0.000  0.000  0.000  0.000  0.000  0.000    3.88   0.00   0.05      0     49  374.3   0.48   0.44    0.0   0.77    0.44    0.44    0.36    0.17    0.09    0.04    0.01    0.00    0.00    0.00      134      53
 1982 138    47    32    8.2      3  1.895    519    445      0    158    964   1043      0     0.0  0.000     79     36  0.000  0.000  0.000  0.000  0.000  0.000  0.000    3.89   0.00   0.08      0     79  365.2   0.51   0.46    0.0   0.79    0.46    0.46    0.36    0.17    0.09    0.04    0.01    0.00    0.00    0.00      152      56
 1982 139    48    33    8.5      3  1.936    545    484      0    163   1029   1146      0     0.0  0.000    117     45  0.000  0.000  0.000  0.000  0.000  0.000  0.000    3.88   0.00   0.10      0    117  355.2   0.54   0.48    0.0   0.80    0.46    0.46    0.37    0.18    0.10    0.05    0.02    0.00    0.00    0.00      162      59
 1982 140    49    34    8.8      5  1.963    567    521      0    167   1087   1251      0     0.0  0.000    164     55  0.000  0.000  0.000  0.000  0.000  0.000  0.000    3.86   0.00   0.13      0    164  346.4   0.57   0.50    0.0   0.82    0.47    0.47    0.38    0.19    0.10    0.05    0.02    0.00    0.00    0.00      173      62
 1982 141    50    35    9.1      5  1.977    580    547      0    169   1127   1345     11     0.0  0.000    218     65  0.000  0.000  0.000  0.000  0.000  0.000  0.000    3.83   0.00   0.16      0    218  340.8   0.60   0.52    0.0   0.83    0.48    0.48    0.38    0.19    0.11    0.05    0.02    0.00    0.00    0.00      182      66
 1982 142    51    36    9.3      5  1.986    594    576      4    170   1170   1450     36    11.7  0.003    280     74  0.000  0.000  0.000  0.000  0.000  0.000  0.000    3.81   1.51   0.19      0    280  334.3   0.63   0.53    0.0   0.85    0.48    0.48    0.38    0.19    0.11    0.05    0.02    0.00    0.00    0.00      192      69
 1982 143    52    37    9.3      5  1.984    605    602     18    172   1207   1561     64    28.7  0.012    353     85  0.000  0.000  0.000  0.000  0.000  0.000  0.000    3.79   5.20   0.23      0    353  327.9   0.66   0.55    0.0   0.87    0.48    0.48    0.38    0.19    0.11    0.05    0.02    0.00    0.00    0.00      202      73
 1982 144    53    38    9.3      5  1.971    611    623     43    172   1234   1673     90    48.4  0.026    440     95  0.000  0.000  0.000  0.000  0.000  0.000  0.000    3.77   9.85   0.26      0    440  322.7   0.69   0.56    0.0   0.88    0.48    0.48    0.38    0.19    0.11    0.05    0.02    0.00    0.00    0.00      213      76
 1982 145    54    39    9.3      5  1.938    602    622     79    170   1224   1764    121    65.0  0.045    540    106  0.000  0.000  0.000  0.000  0.000  0.000  0.000    3.73  14.56   0.31      0    540  322.0   0.72   0.58    0.0   0.90    0.47    0.47    0.37    0.19    0.11    0.05    0.02    0.00    0.00    0.00      223      79
 1982 146    55    40    9.3      5  1.901    593    624    126    167   1217   1868    154    81.9  0.067    651    115  0.000  0.000  0.000  0.000  0.000  0.000  0.000    3.67  19.34   0.35      0    651  320.6   0.75   0.60    0.0   0.91    0.47    0.47    0.37    0.19    0.11    0.05    0.02    0.00    0.00    0.00      235      83
 1982 147    56    41    9.3      5  1.857    577    614    187    164   1191   1965    188    99.6  0.095    774    126  0.000  0.000  0.000  0.000  0.000  0.000  0.000    3.62  24.13   0.39      0    774  321.8   0.75   0.60    0.0   0.91    0.46    0.46    0.36    0.18    0.11    0.05    0.02    0.00    0.00    0.00      247      86
 1982 148    57    42    9.3      5  1.810    560    604    260    160   1164   2063    223   116.9  0.126    899    136  0.000  0.000  0.000  0.000  0.000  0.000  0.000    3.55  28.95   0.44      0    899  323.0   0.75   0.60    0.0   0.91    0.45    0.45    0.35    0.18    0.10    0.05    0.02    0.00    0.00    0.00      261      90
 1982 149    58    43    9.3      5  1.761    543    593    348    156   1136   2163    255   136.2  0.161   1027    144  0.000  0.000  0.000  0.000  0.000  0.000  0.000    3.48  33.87   0.47      0   1027  324.3   0.75   0.60    0.0   0.91    0.44    0.44    0.35    0.18    0.10    0.05    0.02    0.00    0.00    0.00      274      93
 1982 150    59    44    9.3      5  1.709    525    582    447    153   1107   2263    291   153.6  0.197   1156    150  0.000  0.000  0.000  0.000  0.000  0.000  0.000    3.40  38.67   0.51      0   1156  325.6   0.75   0.60    0.0   0.93    0.43    0.43    0.34    0.17    0.10    0.05    0.02    0.00    0.00    0.00      289      96
 1982 151    60    45    9.3      5  1.653    505    572    558    149   1077   2361    328   170.2  0.236   1284    154  0.000  0.000  0.000  0.000  0.000  0.000  0.000    3.30  43.46   0.54      0   1284  327.0   0.75   0.60    0.0   0.95    0.42    0.42    0.33    0.17    0.10    0.05    0.02    0.00    0.00    0.00      305     100
 1982 152    61    46    9.3      7  1.594    485    560    684    145   1046   2458    365   187.4  0.278   1412    156  0.000  0.000  0.000  0.000  0.000  0.000  0.000    3.19  48.43   0.57      0   1412  328.4   0.75   0.60    0.0   0.96    0.41    0.41    0.32    0.17    0.10    0.05    0.02    0.00    0.00    0.00      322     103
 1982 153    62    47    9.3      7  1.176    357    518    821    142    874   2410    396   207.5  0.341   1536    155  0.000  0.000  0.000  0.000  0.000  0.000  0.000    3.00  53.44   0.64      0   1536  329.9   0.75   0.60    0.0   0.96    0.40    0.40    0.32    0.16    0.09    0.05    0.02    0.00    0.00    0.00      484     106
 1982 154    63    48    9.3      7  0.869    262    485    927    138    748   2367    409   226.8  0.392   1620    138  0.000  0.000  0.000  0.000  0.000  0.000  0.000    2.81  57.22   0.68      0   1620  331.4   0.75   0.60    0.0   0.96    0.39    0.39    0.31    0.16    0.09    0.04    0.02    0.00    0.00    0.00      614     109
 1982 155    64    49    9.3      7  0.643    193    461   1004    135    654   2344    409   245.8  0.428   1690    129  0.000  0.000  0.000  0.000  0.000  0.000  0.000    2.64  59.41   0.72      0   1690  332.9   0.75   0.60    0.0   0.96    0.39    0.39    0.30    0.16    0.09    0.04    0.02    0.00    0.00    0.00      699     112
 1982 156    65    50    9.3      7  0.476    142    442   1066    132    585   2330    409   260.9  0.457   1746    123  0.000  0.000  0.000  0.000  0.000  0.000  0.000    2.49  61.07   0.75      0   1746  334.3   0.75   0.60    0.0   0.96    0.38    0.38    0.30    0.15    0.09    0.04    0.02    0.00    0.00    0.00      762     115
 1982 157    66    51    9.3      7  0.353    105    428   1112    129    533   2319    409   272.2  0.480   1786    119  0.000  0.000  0.000  0.000  0.000  0.000  0.000    2.35  62.28   0.77      0   1786  335.8   0.75   0.60    0.0   0.96    0.37    0.37    0.29    0.15    0.09    0.04    0.02    0.00    0.00    0.00      808     118
 1982 158    67    52    9.3      7  0.263     78    417   1146    126    495   2309    409   280.6  0.496   1815    117  0.000  0.000  0.000  0.000  0.000  0.000  0.000    2.23  63.18   0.79      0   1815  336.9   0.75   0.60    0.0   0.96    0.36    0.36    0.29    0.15    0.08    0.04    0.02    0.00    0.00    0.00      843     121
 1982 159    68    53    9.3      7  0.195     58    408   1171    123    465   2300    409   286.6  0.509   1834    117  0.000  0.000  0.000  0.000  0.000  0.000  0.000    2.11  63.85   0.80      0   1834  338.4   0.75   0.60    0.0   0.96    0.35    0.35    0.28    0.14    0.08    0.04    0.02    0.00    0.00    0.00      868     123
 1982 160    69    54    9.3      7  0.146     43    401   1186    121    444   2289    409   290.2  0.518   1845    117  0.000  0.000  0.000  0.000  0.000  0.000  0.000    2.05  64.26   0.81      0   1845  339.8   0.75   0.60    0.0   0.98    0.35    0.35    0.27    0.14    0.08    0.04    0.02    0.00    0.00    0.00      887     126
 1982 161    70    55    9.3      8  0.109     32    395   1195    118    427   2279    409   292.3  0.524   1851    117  0.000  0.000  0.000  0.000  0.000  0.000  0.000    2.01  64.52   0.81      0   1851  341.0   0.75   0.60    0.0   1.00    0.34    0.34    0.27    0.14    0.08    0.04    0.02    0.00    0.00    0.00      901     129

*DSSAT Cropping System Model Ver. 4.6.1.000 -release      JUL 11, 2017; 16:24:43
                                                                                
*RUN   4        : SIM                       CRGRO046 1\000001    1              
 MODEL          : CRGRO046 - Dry bean                                           
 EXPERIMENT     : 1\000001 BN PALMIRA_ANALISIS SENSIBILIDAD                     
 DATA PATH      : D:\B\0\00000                                                  
 TREATMENT  1   : SIM                       CRGRO046                            
  
!                                                                                                                                                                                                                                                    Root Dens. (cm/cm3) by soil depth (cm):
!                                                                                                                                                                                                                                                    0-5    5-15   15-25   25-35   35-50   50-65   65-80   80-99  99-122 122-209
@YEAR DOY   DAS   DAP   L#SD   GSTD   LAID   LWAD   SWAD   GWAD   RWAD   VWAD   CWAD   G#AD    GWGD   HIAD   PWAD   P#AD   WSPD   WSGD   NSTD  PST1A  PST2A   KSTD   EWSD    LN%D   SH%D   HIPD   PWDD   PWTD   SLAD   CHTD   CWID   NWAD   RDPD    RL1D    RL2D    RL3D    RL4D    RL5D    RL6D    RL7D    RL8D    RL9D   RL10D    SNW0C   SNW1C
 1983 106    15     0    0.0      0  0.000      0      0      0      0      0      0      0     0.0  0.000      0      0  0.000  0.000  0.000  0.000  0.000  0.000  0.000    0.00   0.00   0.00      0      0    0.0   0.00   0.00    0.0   0.00    0.00    0.00    0.00    0.00    0.00    0.00    0.00    0.00    0.00    0.00        0       0
 1983 107    16     1    0.0      0  0.000      0      0      0      0      0      0      0     0.0  0.000      0      0  0.000  0.000  0.000  0.000  0.000  0.000  0.000    0.00   0.00   0.00      0      0    0.0   0.00   0.00    0.0   0.00    0.00    0.00    0.00    0.00    0.00    0.00    0.00    0.00    0.00    0.00        0       0
 1983 108    17     2    0.0      0  0.000      0      0      0      0      0      0      0     0.0  0.000      0      0  0.000  0.000  0.000  0.000  0.000  0.000  0.000    0.00   0.00   0.00      0      0    0.0   0.00   0.00    0.0   0.00    0.00    0.00    0.00    0.00    0.00    0.00    0.00    0.00    0.00    0.00        0       0
 1983 109    18     3    0.0      0  0.000      0      0      0      0      0      0      0     0.0  0.000      0      0  0.000  0.000  0.000  0.000  0.000  0.000  0.000    0.00   0.00   0.00      0      0    0.0   0.00   0.00    0.0   0.00    0.00    0.00    0.00    0.00    0.00    0.00    0.00    0.00    0.00    0.00        0       0
 1983 110    19     4    0.0      0  0.000      0      0      0      0      0      0      0     0.0  0.000      0      0  0.000  0.000  0.000  0.000  0.000  0.000  0.000    0.00   0.00   0.00      0      0    0.0   0.00   0.00    0.0   0.00    0.00    0.00    0.00    0.00    0.00    0.00    0.00    0.00    0.00    0.00        0       0
 1983 111    20     5    0.2      0  0.079     31     13      0     43     44     44      0     0.0  0.000      0      0  0.000  0.000  0.000  0.000  0.000  0.000  0.000    3.84   0.00   0.00      0      0  256.7   0.04   0.03    0.0   0.27    0.15    0.15    0.15    0.00    0.00    0.00    0.00    0.00    0.00    0.00        0       1
 1983 112    21     6    0.5      0  0.082     31     14      0     51     45     45      0     0.0  0.000      0      0  0.000  0.000  0.654  0.000  0.000  0.000  0.000    3.78   0.00   0.00      0      0  261.7   0.05   0.03    0.0   0.29    0.18    0.18    0.18    0.01    0.00    0.00    0.00    0.00    0.00    0.00        0       2
 1983 113    22     7    0.8      0  0.084     32     15      0     59     46     46      0     0.0  0.000      0      0  0.000  0.000  0.740  0.000  0.000  0.000  0.000    3.72   0.00   0.00      0      0  265.3   0.06   0.04    0.0   0.31    0.21    0.21    0.20    0.02    0.00    0.00    0.00    0.00    0.00    0.00        0       3
 1983 114    23     8    1.1      0  0.087     32     16      0     67     48     48      0     0.0  0.000      0      0  0.000  0.000  0.595  0.000  0.000  0.000  0.000    3.70   0.00   0.00      0      0  271.2   0.07   0.04    0.0   0.33    0.24    0.24    0.22    0.03    0.00    0.00    0.00    0.00    0.00    0.00        0       4
 1983 115    24     9    1.4      0  0.091     33     18      0     74     51     51      0     0.0  0.000      0      0  0.000  0.000  0.487  0.000  0.000  0.000  0.000    3.68   0.00   0.00      0      0  277.5   0.08   0.05    0.0   0.36    0.26    0.26    0.23    0.04    0.00    0.00    0.00    0.00    0.00    0.00        1       6
 1983 116    25    10    1.7      0  0.096     34     21      0     80     55     55      0     0.0  0.000      0      0  0.000  0.000  0.375  0.000  0.000  0.000  0.000    3.66   0.00   0.00      0      0  285.2   0.09   0.06    0.0   0.38    0.28    0.28    0.24    0.05    0.00    0.00    0.00    0.00    0.00    0.00        1       7
 1983 117    26    11    2.0      0  0.112     37     25      0     83     62     62      0     0.0  0.000      0      0  0.000  0.000  0.154  0.000  0.000  0.000  0.000    3.64   0.00   0.00      0      0  301.1   0.10   0.07    0.0   0.40    0.29    0.29    0.25    0.06    0.00    0.00    0.00    0.00    0.00    0.00        2       9
 1983 118    27    12    2.3      0  0.138     42     28      0     84     71     71      0     0.0  0.000      0      0  0.000  0.000  0.040  0.000  0.000  0.000  0.000    3.59   0.00   0.00      0      0  326.2   0.11   0.07    0.0   0.42    0.29    0.29    0.25    0.06    0.00    0.00    0.00    0.00    0.00    0.00        2      11
 1983 119    28    13    2.6      0  0.165     48     33      0     85     81     81      0     0.0  0.000      0      0  0.000  0.000  0.000  0.000  0.000  0.000  0.000    3.56   0.00   0.00      0      0  342.8   0.12   0.08    0.0   0.44    0.30    0.30    0.25    0.07    0.01    0.00    0.00    0.00    0.00    0.00        2      12
 1983 120    29    14    2.9      0  0.197     55     39      0     87     94     94      0     0.0  0.000      0      0  0.000  0.000  0.000  0.000  0.000  0.000  0.000    3.53   0.00   0.00      0      0  358.2   0.13   0.09    0.0   0.46    0.30    0.30    0.26    0.07    0.01    0.00    0.00    0.00    0.00    0.00        3      14
 1983 121    30    15    3.2      0  0.253     67     42      0     87    110    110      0     0.0  0.000      0      0  0.000  0.000  0.000  0.000  0.000  0.000  0.000    3.52   0.00   0.00      0      0  374.7   0.14   0.10    0.0   0.48    0.30    0.30    0.25    0.07    0.01    0.00    0.00    0.00    0.00    0.00        4      16
 1983 122    31    16    3.5      0  0.309     80     49      0     87    129    129      0     0.0  0.000      0      0  0.000  0.000  0.000  0.000  0.000  0.000  0.000    3.51   0.00   0.00      0      0  387.9   0.15   0.12    0.0   0.50    0.30    0.30    0.26    0.07    0.01    0.00    0.00    0.00    0.00    0.00        4      18
 1983 123    32    17    3.8      0  0.364     92     58      0     89    150    150      0     0.0  0.000      0      0  0.000  0.000  0.000  0.000  0.000  0.000  0.000    3.51   0.00   0.00      0      0  395.5   0.16   0.14    0.0   0.52    0.30    0.30    0.26    0.08    0.02    0.00    0.00    0.00    0.00    0.00        5      20
 1983 124    33    18    4.1      0  0.419    103     71      0     91    174    174      0     0.0  0.000      0      0  0.000  0.000  0.000  0.000  0.000  0.000  0.000    3.50   0.00   0.00      0      0  406.0   0.17   0.16    0.0   0.54    0.31    0.31    0.26    0.08    0.02    0.00    0.00    0.00    0.00    0.00        6      22
 1983 125    34    19    4.4      0  0.490    119     83      0     93    203    203      0     0.0  0.000      0      0  0.000  0.000  0.000  0.000  0.000  0.000  0.000    3.51   0.00   0.00      0      0  410.4   0.19   0.18    0.0   0.56    0.31    0.31    0.26    0.09    0.02    0.00    0.00    0.00    0.00    0.00        8      24
 1983 126    35    20    4.7      0  0.605    145     92      0     94    237    237      0     0.0  0.000      0      0  0.000  0.000  0.000  0.000  0.000  0.000  0.000    3.53   0.00   0.00      0      0  416.8   0.20   0.20    0.0   0.58    0.31    0.31    0.26    0.09    0.03    0.00    0.00    0.00    0.00    0.00        9      26
 1983 127    36    21    5.0      0  0.743    174    102      0     96    276    276      0     0.0  0.000      0      0  0.000  0.000  0.000  0.000  0.000  0.000  0.000    3.55   0.00   0.00      0      0  426.2   0.22   0.22    0.0   0.60    0.32    0.32    0.26    0.09    0.03    0.00    0.00    0.00    0.00    0.00       11      28
 1983 128    37    22    5.3      0  0.873    204    120      0     99    323    323      0     0.0  0.000      0      0  0.000  0.000  0.000  0.000  0.000  0.000  0.000    3.55   0.00   0.00      0      0  427.9   0.24   0.25    0.0   0.62    0.32    0.32    0.27    0.10    0.03    0.01    0.00    0.00    0.00    0.00       13      30
 1983 129    38    23    5.6      0  1.024    238    140      0    103    378    378      0     0.0  0.000      0      0  0.000  0.000  0.000  0.000  0.000  0.000  0.000    3.56   0.00   0.00      0      0  430.7   0.26   0.27    0.0   0.64    0.33    0.33    0.28    0.10    0.04    0.01    0.00    0.00    0.00    0.00       15      32
 1983 130    39    24    5.9      1  1.194    275    165      0    108    440    440      0     0.0  0.000      0      0  0.000  0.000  0.000  0.000  0.000  0.000  0.000    3.56   0.00   0.00      0      0  433.7   0.29   0.29    0.0   0.66    0.34    0.34    0.28    0.11    0.04    0.01    0.00    0.00    0.00    0.00       18      34
 1983 131    40    25    6.2      1  1.370    315    193      0    113    508    508      0     0.0  0.000      0      0  0.000  0.000  0.000  0.000  0.000  0.000  0.000    3.56   0.00   0.00      0      0  435.4   0.32   0.32    0.0   0.67    0.36    0.36    0.29    0.12    0.05    0.02    0.00    0.00    0.00    0.00       21      37
 1983 132    41    26    6.5      1  1.511    355    226      0    120    582    582      0     0.0  0.000      0      0  0.000  0.000  0.000  0.000  0.000  0.000  0.000    3.60   0.00   0.00      0      0  425.0   0.35   0.34    0.0   0.69    0.37    0.37    0.30    0.13    0.06    0.02    0.00    0.00    0.00    0.00       30      39
 1983 133    42    27    6.8      3  1.631    393    263      0    127    656    656      0     0.0  0.000      0      0  0.000  0.000  0.000  0.000  0.000  0.000  0.000    3.66   0.00   0.00      0      0  415.3   0.38   0.36    0.0   0.71    0.39    0.39    0.31    0.13    0.06    0.03    0.00    0.00    0.00    0.00       47      42
 1983 134    43    28    7.1      3  1.731    428    303      0    135    732    734      0     0.0  0.000      3      3  0.000  0.000  0.000  0.000  0.000  0.000  0.000    3.73   0.00   0.00      0      3  404.1   0.41   0.39    0.0   0.73    0.40    0.40    0.33    0.14    0.07    0.03    0.00    0.00    0.00    0.00       68      45
 1983 135    44    29    7.4      3  1.806    458    343      0    142    801    812      0     0.0  0.000     12     11  0.000  0.000  0.000  0.000  0.000  0.000  0.000    3.79   0.00   0.01      0     12  394.3   0.44   0.41    0.0   0.74    0.42    0.42    0.34    0.15    0.08    0.03    0.01    0.00    0.00    0.00       92      48
 1983 136    45    30    7.7      3  1.853    484    382      0    149    866    894      0     0.0  0.000     28     19  0.000  0.000  0.000  0.000  0.000  0.000  0.000    3.85   0.00   0.03      0     28  383.1   0.47   0.43    0.0   0.76    0.44    0.44    0.35    0.16    0.08    0.04    0.01    0.00    0.00    0.00      117      50
 1983 137    46    31    8.0      3  1.879    506    422      0    155    927    979      0     0.0  0.000     52     28  0.000  0.000  0.000  0.000  0.000  0.000  0.000    3.90   0.00   0.05      0     52  371.6   0.50   0.45    0.0   0.78    0.45    0.45    0.36    0.17    0.09    0.04    0.01    0.00    0.00    0.00      144      54
 1983 138    47    32    8.3      3  1.929    533    463      0    160    996   1079      0     0.0  0.000     83     38  0.000  0.000  0.000  0.000  0.000  0.000  0.000    3.89   0.00   0.08      0     83  361.7   0.52   0.47    0.0   0.79    0.46    0.46    0.37    0.18    0.10    0.04    0.01    0.00    0.00    0.00      157      57
 1983 139    48    33    8.6      3  1.968    560    504      0    165   1065   1187      0     0.0  0.000    123     47  0.000  0.000  0.000  0.000  0.000  0.000  0.000    3.88   0.00   0.10      0    123  351.2   0.55   0.49    0.0   0.81    0.47    0.47    0.37    0.18    0.10    0.05    0.02    0.00    0.00    0.00      168      60
 1983 140    49    34    8.9      5  1.992    581    541      0    169   1121   1293      0     0.0  0.000    171     58  0.000  0.000  0.000  0.000  0.000  0.000  0.000    3.86   0.00   0.13      0    171  343.1   0.59   0.51    0.0   0.83    0.48    0.48    0.38    0.19    0.11    0.05    0.02    0.00    0.00    0.00      179      64
 1983 141    50    35    9.2      5  2.011    601    579      0    172   1180   1406     10     0.0  0.000    226     68  0.000  0.000  0.000  0.000  0.000  0.000  0.000    3.83   0.00   0.16      0    226  334.5   0.62   0.52    0.0   0.84    0.48    0.48    0.38    0.19    0.11    0.05    0.02    0.00    0.00    0.00      189      67
 1983 142    51    36    9.5      5  2.016    617    612      4    175   1230   1520     36    11.3  0.003    291     78  0.000  0.000  0.000  0.000  0.000  0.000  0.000    3.81   1.39   0.19      0    291  326.7   0.65   0.54    0.0   0.86    0.49    0.49    0.39    0.20    0.11    0.05    0.02    0.00    0.00    0.00      200      71
 1983 143    52    37    9.5      5  2.012    629    643     18    177   1272   1638     65    27.3  0.011    366     89  0.000  0.000  0.000  0.000  0.000  0.000  0.000    3.78   4.83   0.22      0    366  319.6   0.68   0.56    0.0   0.87    0.49    0.49    0.39    0.20    0.11    0.06    0.03    0.00    0.00    0.00      211      75
 1983 144    53    38    9.5      5  1.993    633    663     43    177   1296   1750     95    44.8  0.024    454    100  0.000  0.000  0.000  0.000  0.000  0.000  0.000    3.76   9.37   0.26      0    454  314.8   0.72   0.58    0.0   0.89    0.49    0.49    0.39    0.20    0.11    0.06    0.03    0.00    0.00    0.00      224      79
 1983 145    54    39    9.5      5  1.961    630    676     79    176   1306   1860    127    62.3  0.042    554    111  0.000  0.000  0.000  0.000  0.000  0.000  0.000    3.71  14.22   0.30      0    554  311.2   0.75   0.60    0.0   0.91    0.49    0.49    0.38    0.20    0.11    0.06    0.03    0.00    0.00    0.00      238      82
 1983 146    55    40    9.5      5  1.919    621    679    127    174   1300   1963    193    65.8  0.065    663    121  0.000  0.000  0.000  0.000  0.000  0.000  0.000    3.65  19.16   0.34      0    663  309.2   0.75   0.60    0.0   0.93    0.48    0.48    0.38    0.20    0.11    0.06    0.03    0.00    0.00    0.00      256      86
 1983 147    56    41    9.5      5  1.870    602    667    201    170   1270   2066    227    88.4  0.097    796    131  0.000  0.000  0.000  0.000  0.000  0.000  0.000    3.58  25.26   0.39      0    796  310.5   0.75   0.60    0.0   0.93    0.47    0.47    0.37    0.19    0.11    0.06    0.03    0.00    0.00    0.00      272      90
 1983 148    57    42    9.5      5  1.820    584    656    290    166   1240   2171    227   127.6  0.134    931    140  0.000  0.000  0.000  0.000  0.000  0.000  0.000    3.51  31.16   0.43      0    931  311.8   0.75   0.60    0.0   0.93    0.46    0.46    0.36    0.19    0.11    0.05    0.03    0.00    0.00    0.00      285      93
 1983 149    58    43    9.5      5  1.767    564    644    379    162   1208   2270    263   143.9  0.167   1062    146  0.000  0.000  0.000  0.000  0.000  0.000  0.000    3.43  35.63   0.47      0   1062  313.1   0.75   0.60    0.0   0.93    0.45    0.45    0.36    0.18    0.11    0.05    0.02    0.00    0.00    0.00      302      97
 1983 150    59    44    9.5      5  1.710    544    631    479    158   1175   2366    337   142.0  0.202   1191    149  0.000  0.000  0.000  0.000  0.000  0.000  0.000    3.34  40.22   0.50      0   1191  314.5   0.75   0.60    0.0   0.94    0.44    0.44    0.35    0.18    0.10    0.05    0.02    0.00    0.00    0.00      324     100
 1983 151    60    45    9.5      5  1.652    523    619    607    154   1142   2471    337   180.0  0.246   1329    152  0.000  0.000  0.000  0.000  0.000  0.000  0.000    3.24  45.70   0.54      0   1329  315.8   0.75   0.60    0.0   0.96    0.43    0.43    0.34    0.18    0.10    0.05    0.02    0.00    0.00    0.00      339     104
 1983 152    61    46    9.5      7  1.596    503    607    738    150   1110   2567    374   197.1  0.287   1457    151  0.000  0.000  0.000  0.000  0.000  0.000  0.000    3.14  50.65   0.57      0   1457  317.3   0.75   0.60    0.0   0.96    0.42    0.42    0.33    0.17    0.10    0.05    0.02    0.00    0.00    0.00      357     107
 1983 153    62    47    9.5      7  1.178    370    563    877    147    933   2506    400   219.1  0.350   1574    148  0.000  0.000  0.000  0.000  0.000  0.000  0.000    2.94  55.72   0.63      0   1574  318.7   0.75   0.60    0.0   0.96    0.41    0.41    0.33    0.17    0.10    0.05    0.02    0.00    0.00    0.00      535     110
 1983 154    63    48    9.5      7  0.871    272    529    980    143    801   2458    411   238.6  0.399   1657    131  0.000  0.000  0.000  0.000  0.000  0.000  0.000    2.76  59.13   0.67      0   1657  320.2   0.75   0.60    0.0   0.96    0.40    0.40    0.32    0.16    0.10    0.05    0.02    0.00    0.00    0.00      668     114
[...]
 TREATMENT  1   : SIM                       CRGRO046                            
  
!                                                                                                                                                                                                                                                    Root Dens. (cm/cm3) by soil depth (cm):
!                                                                                                                                                                                                                                                    0-5    5-15   15-25   25-35   35-50   50-65   65-80   80-99  99-122 122-209
@YEAR DOY   DAS   DAP   L#SD   GSTD   LAID   LWAD   SWAD   GWAD   RWAD   VWAD   CWAD   G#AD    GWGD   HIAD   PWAD   P#AD   WSPD   WSGD   NSTD  PST1A  PST2A   KSTD   EWSD    LN%D   SH%D   HIPD   PWDD   PWTD   SLAD   CHTD   CWID   NWAD   RDPD    RL1D    RL2D    RL3D    RL4D    RL5D    RL6D    RL7D    RL8D    RL9D   RL10D    SNW0C   SNW1C
 2011 106    15     0    0.0      0  0.000      0      0      0      0      0      0      0     0.0  0.000      0      0  0.000  0.000  0.000  0.000  0.000  0.000  0.000    0.00   0.00   0.00      0      0    0.0   0.00   0.00    0.0   0.00    0.00    0.00    0.00    0.00    0.00    0.00    0.00    0.00    0.00    0.00        0       0
 2011 107    16     1    0.0      0  0.000      0      0      0      0      0      0      0     0.0  0.000      0      0  0.000  0.000  0.000  0.000  0.000  0.000  0.000    0.00   0.00   0.00      0      0    0.0   0.00   0.00    0.0   0.00    0.00    0.00    0.00    0.00    0.00    0.00    0.00    0.00    0.00    0.00        0       0
 2011 108    17     2    0.0      0  0.000      0      0      0      0      0      0      0     0.0  0.000      0      0  0.000  0.000  0.000  0.000  0.000  0.000  0.000    0.00   0.00   0.00      0      0    0.0   0.00   0.00    0.0   0.00    0.00    0.00    0.00    0.00    0.00    0.00    0.00    0.00    0.00    0.00        0       0
 2011 109    18     3    0.0      0  0.000      0      0      0      0      0      0      0     0.0  0.000      0      0  0.000  0.000  0.000  0.000  0.000  0.000  0.000    0.00   0.00   0.00      0      0    0.0   0.00   0.00    0.0   0.00    0.00    0.00    0.00    0.00    0.00    0.00    0.00    0.00    0.00    0.00        0       0
 2011 110    19     4    0.0      0  0.000      0      0      0      0      0      0      0     0.0  0.000      0      0  0.000  0.000  0.000  0.000  0.000  0.000  0.000    0.00   0.00   0.00      0      0    0.0   0.00   0.00    0.0   0.00    0.00    0.00    0.00    0.00    0.00    0.00    0.00    0.00    0.00    0.00        0       0
 2011 111    20     5    0.2      0  0.079     31     13      0     43     44     44      0     0.0  0.000      0      0  0.000  0.000  0.000  0.000  0.000  0.000  0.000    3.84   0.00   0.00      0      0  256.7   0.04   0.03    0.0   0.27    0.15    0.15    0.15    0.00    0.00    0.00    0.00    0.00    0.00    0.00        0       1
 2011 112    21     6    0.5      0  0.082     31     14      0     51     45     45      0     0.0  0.000      0      0  0.000  0.000  0.674  0.000  0.000  0.000  0.000    3.78   0.00   0.00      0      0  261.2   0.05   0.03    0.0   0.29    0.19    0.19    0.18    0.01    0.00    0.00    0.00    0.00    0.00    0.00        0       2
 2011 113    22     7    0.8      0  0.084     32     15      0     60     47     47      0     0.0  0.000      0      0  0.000  0.000  0.703  0.000  0.000  0.000  0.000    3.73   0.00   0.00      0      0  264.8   0.06   0.04    0.0   0.31    0.22    0.22    0.20    0.02    0.00    0.00    0.00    0.00    0.00    0.00        0       3
 2011 114    23     8    1.1      0  0.088     32     16      0     68     49     49      0     0.0  0.000      0      0  0.000  0.000  0.555  0.000  0.000  0.000  0.000    3.71   0.00   0.00      0      0  270.3   0.07   0.04    0.0   0.33    0.24    0.24    0.22    0.03    0.00    0.00    0.00    0.00    0.00    0.00        0       4
 2011 115    24     9    1.4      0  0.092     33     19      0     76     52     52      0     0.0  0.000      0      0  0.000  0.000  0.476  0.000  0.000  0.000  0.000    3.68   0.00   0.00      0      0  277.1   0.08   0.05    0.0   0.36    0.27    0.27    0.24    0.05    0.00    0.00    0.00    0.00    0.00    0.00        1       6
 2011 116    25    10    1.7      0  0.098     34     22      0     82     57     57      0     0.0  0.000      0      0  0.000  0.000  0.298  0.000  0.000  0.000  0.000    3.66   0.00   0.00      0      0  284.0   0.09   0.06    0.0   0.38    0.29    0.29    0.25    0.06    0.00    0.00    0.00    0.00    0.00    0.00        1       7
 2011 117    26    11    2.0      0  0.113     38     27      0     85     64     64      0     0.0  0.000      0      0  0.000  0.000  0.146  0.000  0.000  0.000  0.000    3.63   0.00   0.00      0      0  299.9   0.10   0.07    0.0   0.40    0.30    0.30    0.26    0.06    0.00    0.00    0.00    0.00    0.00    0.00        2       9
 2011 118    27    12    2.3      0  0.140     44     31      0     86     74     74      0     0.0  0.000      0      0  0.000  0.000  0.000  0.000  0.000  0.000  0.000    3.58   0.00   0.00      0      0  320.4   0.11   0.07    0.0   0.42    0.30    0.30    0.26    0.07    0.00    0.00    0.00    0.00    0.00    0.00        2      11
 2011 119    28    13    2.6      0  0.167     50     37      0     88     86     86      0     0.0  0.000      0      0  0.000  0.000  0.000  0.000  0.000  0.000  0.000    3.54   0.00   0.00      0      0  336.3   0.12   0.08    0.0   0.44    0.30    0.30    0.26    0.07    0.01    0.00    0.00    0.00    0.00    0.00        3      13
 2011 120    29    14    2.9      0  0.201     57     43      0     89    100    100      0     0.0  0.000      0      0  0.000  0.000  0.000  0.000  0.000  0.000  0.000    3.52   0.00   0.00      0      0  352.3   0.13   0.09    0.0   0.46    0.31    0.31    0.26    0.07    0.01    0.00    0.00    0.00    0.00    0.00        3      15
 2011 121    30    15    3.2      0  0.259     70     47      0     89    117    117      0     0.0  0.000      0      0  0.000  0.000  0.000  0.000  0.000  0.000  0.000    3.52   0.00   0.00      0      0  369.2   0.14   0.10    0.0   0.48    0.31    0.31    0.26    0.08    0.01    0.00    0.00    0.00    0.00    0.00        4      16
 2011 122    31    16    3.5      0  0.314     83     55      0     91    138    138      0     0.0  0.000      0      0  0.000  0.000  0.000  0.000  0.000  0.000  0.000    3.52   0.00   0.00      0      0  377.3   0.15   0.12    0.0   0.50    0.31    0.31    0.26    0.08    0.01    0.00    0.00    0.00    0.00    0.00        5      18
 2011 123    32    17    3.8      0  0.369     93     66      0     93    159    159      0     0.0  0.000      0      0  0.000  0.000  0.000  0.000  0.000  0.000  0.000    3.50   0.00   0.00      0      0  395.9   0.16   0.14    0.0   0.53    0.31    0.31    0.27    0.08    0.02    0.00    0.00    0.00    0.00    0.00        5      20
 2011 124    33    18    4.1      0  0.423    105     80      0     96    185    185      0     0.0  0.000      0      0  0.000  0.000  0.000  0.000  0.000  0.000  0.000    3.50   0.00   0.00      0      0  403.4   0.17   0.16    0.0   0.55    0.32    0.32    0.27    0.09    0.02    0.00    0.00    0.00    0.00    0.00        7      22
 2011 125    34    19    4.4      0  0.498    122     94      0     98    215    215      0     0.0  0.000      0      0  0.000  0.000  0.000  0.000  0.000  0.000  0.000    3.51   0.00   0.00      0      0  409.2   0.19   0.18    0.0   0.56    0.33    0.33    0.27    0.09    0.03    0.00    0.00    0.00    0.00    0.00        8      24
 2011 126    35    20    4.7      0  0.619    150    103      0     99    252    252      0     0.0  0.000      0      0  0.000  0.000  0.000  0.000  0.000  0.000  0.000    3.54   0.00   0.00      0      0  413.4   0.20   0.20    0.0   0.58    0.33    0.33    0.27    0.09    0.03    0.00    0.00    0.00    0.00    0.00        9      27
 2011 127    36    21    5.0      0  0.758    180    116      0    101    296    296      0     0.0  0.000      0      0  0.000  0.000  0.000  0.000  0.000  0.000  0.000    3.55   0.00   0.00      0      0  422.0   0.22   0.23    0.0   0.60    0.33    0.33    0.28    0.10    0.03    0.00    0.00    0.00    0.00    0.00       11      29
 2011 128    37    22    5.3      0  0.902    212    135      0    105    346    346      0     0.0  0.000      0      0  0.000  0.000  0.000  0.000  0.000  0.000  0.000    3.56   0.00   0.00      0      0  426.1   0.24   0.25    0.0   0.62    0.34    0.34    0.28    0.10    0.04    0.01    0.00    0.00    0.00    0.00       13      31
 2011 129    38    23    5.6      0  1.067    249    157      0    109    406    406      0     0.0  0.000      0      0  0.000  0.000  0.000  0.000  0.000  0.000  0.000    3.57   0.00   0.00      0      0  429.0   0.26   0.27    0.0   0.64    0.35    0.35    0.29    0.11    0.04    0.01    0.00    0.00    0.00    0.00       15      33
 2011 130    39    24    5.9      1  1.241    290    184      0    115    474    474      0     0.0  0.000      0      0  0.000  0.000  0.000  0.000  0.000  0.000  0.000    3.57   0.00   0.00      0      0  427.7   0.29   0.29    0.0   0.66    0.36    0.36    0.30    0.12    0.05    0.01    0.00    0.00    0.00    0.00       18      36
 2011 131    40    25    6.2      1  1.428    335    216      0    121    551    551      0     0.0  0.000      0      0  0.000  0.000  0.000  0.000  0.000  0.000  0.000    3.58   0.00   0.00      0      0  426.9   0.32   0.32    0.0   0.68    0.38    0.38    0.31    0.13    0.06    0.02    0.00    0.00    0.00    0.00       22      38
 2011 132    41    26    6.5      1  1.593    378    252      0    128    631    631      0     0.0  0.000      0      0  0.000  0.000  0.000  0.000  0.000  0.000  0.000    3.62   0.00   0.00      0      0  421.0   0.35   0.34    0.0   0.69    0.39    0.39    0.32    0.14    0.06    0.02    0.00    0.00    0.00    0.00       33      41
 2011 133    42    27    6.8      3  1.731    419    292      0    136    711    711      0     0.0  0.000      0      0  0.000  0.000  0.000  0.000  0.000  0.000  0.000    3.68   0.00   0.00      0      0  413.4   0.38   0.36    0.0   0.71    0.41    0.41    0.33    0.15    0.07    0.03    0.00    0.00    0.00    0.00       51      44
 2011 134    43    28    7.1      3  1.850    454    331      0    144    785    788      0     0.0  0.000      3      3  0.000  0.000  0.000  0.000  0.000  0.000  0.000    3.73   0.00   0.00      0      3  407.3   0.41   0.39    0.0   0.73    0.43    0.43    0.35    0.16    0.08    0.03    0.01    0.00    0.00    0.00       71      46
 2011 135    44    29    7.4      3  1.935    489    376      0    152    865    878      0     0.0  0.000     13     12  0.000  0.000  0.000  0.000  0.000  0.000  0.000    3.79   0.00   0.01      0     13  395.4   0.43   0.40    0.0   0.74    0.45    0.45    0.36    0.17    0.09    0.04    0.01    0.00    0.00    0.00       95      49
 2011 136    45    30    7.7      3  1.989    519    420      0    160    939    969      0     0.0  0.000     31     21  0.000  0.000  0.000  0.000  0.000  0.000  0.000    3.86   0.00   0.03      0     31  383.4   0.46   0.43    0.0   0.76    0.47    0.47    0.37    0.18    0.09    0.04    0.01    0.00    0.00    0.00      124      52
 2011 137    46    31    8.0      3  2.018    543    465      0    167   1008   1064      0     0.0  0.000     56     31  0.000  0.000  0.000  0.000  0.000  0.000  0.000    3.92   0.00   0.05      0     56  371.3   0.49   0.45    0.0   0.78    0.48    0.48    0.38    0.19    0.10    0.05    0.01    0.00    0.00    0.00      154      56
 2011 138    47    32    8.3      3  2.071    577    513      0    174   1090   1180      0     0.0  0.000     90     41  0.000  0.000  0.000  0.000  0.000  0.000  0.000    3.91   0.00   0.08      0     90  358.9   0.52   0.47    0.0   0.79    0.50    0.50    0.39    0.19    0.11    0.05    0.02    0.00    0.00    0.00      169      59
 2011 139    48    33    8.6      3  2.114    606    559      0    179   1165   1299      0     0.0  0.000    133     52  0.000  0.000  0.000  0.000  0.000  0.000  0.000    3.90   0.00   0.10      0    133  348.7   0.55   0.48    0.0   0.81    0.51    0.51    0.40    0.20    0.11    0.05    0.02    0.00    0.00    0.00      182      63
 2011 140    49    34    8.9      5  2.144    634    606      0    185   1240   1425      0     0.0  0.000    185     63  0.000  0.000  0.000  0.000  0.000  0.000  0.000    3.88   0.00   0.13      0    185  337.9   0.58   0.50    0.0   0.82    0.52    0.52    0.41    0.21    0.12    0.06    0.02    0.00    0.00    0.00      194      67
 2011 141    50    35    9.2      5  2.161    657    648      0    189   1305   1551     11     0.0  0.000    245     75  0.000  0.000  0.000  0.000  0.000  0.000  0.000    3.86   0.00   0.16      0    245  328.9   0.61   0.52    0.0   0.84    0.53    0.53    0.41    0.21    0.12    0.06    0.02    0.00    0.00    0.00      207      71
 2011 142    51    36    9.4      5  2.167    675    686      4    192   1361   1677     39    11.2  0.003    316     86  0.000  0.000  0.000  0.000  0.000  0.000  0.000    3.84   1.37   0.19      0    316  321.2   0.64   0.54    0.0   0.86    0.53    0.53    0.42    0.22    0.13    0.06    0.03    0.00    0.00    0.00      220      74
 2011 143    52    37    9.4      5  2.165    689    720     19    194   1409   1807     70    27.3  0.011    398     98  0.000  0.000  0.000  0.000  0.000  0.000  0.000    3.82   4.80   0.22      0    398  314.2   0.67   0.56    0.0   0.87    0.54    0.54    0.42    0.22    0.13    0.06    0.03    0.00    0.00    0.00      233      79
 2011 144    53    38    9.4      5  2.152    698    749     45    195   1447   1939    103    44.0  0.023    491    110  0.000  0.000  0.000  0.000  0.000  0.000  0.000    3.80   9.22   0.25      0    491  308.4   0.70   0.57    0.0   0.89    0.54    0.54    0.42    0.22    0.13    0.06    0.03    0.00    0.00    0.00      248      83
 2011 145    54    39    9.4      5  2.119    696    765     85    194   1461   2060    137    61.6  0.041    600    122  0.000  0.000  0.000  0.000  0.000  0.000  0.000    3.75  14.10   0.29      0    600  304.6   0.74   0.59    0.0   0.91    0.53    0.53    0.42    0.22    0.13    0.06    0.03    0.00    0.00    0.00      265      87
 2011 146    55    40    9.4      5  2.076    687    772    136    192   1460   2180    172    79.3  0.063    720    133  0.000  0.000  0.000  0.000  0.000  0.000  0.000    3.69  18.92   0.33      0    720  302.1   0.74   0.59    0.0   0.92    0.53    0.53    0.41    0.22    0.13    0.06    0.03    0.00    0.00    0.00      282      91
 2011 147    56    41    9.4      5  2.025    672    770    201    189   1442   2296    209    96.3  0.088    854    145  0.000  0.000  0.000  0.000  0.000  0.000  0.000    3.62  23.56   0.37      0    854  301.3   0.74   0.59    0.0   0.94    0.52    0.52    0.41    0.22    0.13    0.06    0.03    0.00    0.00    0.00      301      95
 2011 148    57    42    9.4      5  1.971    651    756    282    185   1407   2410    247   114.1  0.117   1002    154  0.000  0.000  0.000  0.000  0.000  0.000  0.000    3.55  28.11   0.42      0   1002  302.6   0.74   0.59    0.0   0.94    0.51    0.51    0.40    0.21    0.12    0.06    0.03    0.00    0.00    0.00      321      99
 2011 149    58    43    9.4      5  1.912    629    742    377    180   1371   2520    287   131.5  0.150   1150    161  0.000  0.000  0.000  0.000  0.000  0.000  0.000    3.48  32.80   0.46      0   1150  304.0   0.74   0.59    0.0   0.94    0.50    0.50    0.39    0.21    0.12    0.06    0.03    0.00    0.00    0.00      341     103
 2011 150    59    44    9.4      5  1.851    606    728    486    176   1334   2627    368   132.1  0.185   1293    164  0.000  0.000  0.000  0.000  0.000  0.000  0.000    3.39  37.60   0.49      0   1293  305.3   0.74   0.59    0.0   0.96    0.49    0.49    0.38    0.20    0.12    0.06    0.03    0.00    0.00    0.00      367     107
 2011 151    60    45    9.4      5  1.789    583    714    626    172   1297   2742    408   153.5  0.228   1445    166  0.000  0.000  0.000  0.000  0.000  0.000  0.000    3.29  43.35   0.53      0   1445  306.6   0.74   0.59    0.0   0.97    0.48    0.48    0.37    0.20    0.12    0.06    0.03    0.00    0.00    0.00      388     111
 2011 152    61    46    9.4      7  1.726    561    701    785    168   1261   2848    446   176.0  0.276   1587    165  0.000  0.000  0.000  0.000  0.000  0.000  0.000    3.18  49.47   0.56      0   1587  307.9   0.74   0.59    0.0   0.97    0.47    0.47    0.37    0.19    0.11    0.06    0.03    0.00    0.00    0.00      411     115
 2011 153    62    47    9.4      7  1.274    412    650    924    164   1062   2779    446   207.1  0.332   1717    165  0.000  0.000  0.000  0.000  0.000  0.000  0.000    2.99  53.80   0.62      0   1717  309.4   0.74   0.59    0.0   0.97    0.46    0.46    0.36    0.19    0.11    0.06    0.03    0.00    0.00    0.00      593     118
 2011 154    63    48    9.4      7  0.942    303    612   1044    160    915   2727    470   222.3  0.383   1812    160  0.000  0.000  0.000  0.000  0.000  0.000  0.000    2.81  57.61   0.66      0   1812  311.0   0.74   0.59    0.0   0.97    0.45    0.45    0.35    0.19    0.11    0.05    0.03    0.00    0.00    0.00      744     121
 2011 155    64    49    9.4      7  0.697    223    583   1133    157    807   2690    477   237.3  0.421   1884    152  0.000  0.000  0.000  0.000  0.000  0.000  0.000    2.65  60.13   0.70      0   1884  312.5   0.74   0.59    0.0   0.97    0.44    0.44    0.34    0.18    0.11    0.05    0.03    0.00    0.00    0.00      852     125
 2011 156    65    50    9.4      7  0.516    165    562   1207    153    726   2678    477   253.0  0.451   1952    145  0.000  0.000  0.000  0.000  0.000  0.000  0.000    2.50  61.86   0.73      0   1952  313.7   0.74   0.59    0.0   0.97    0.43    0.43    0.34    0.18    0.11    0.05    0.03    0.00    0.00    0.00      925     128
 2011 157    66    51    9.4      7  0.383    122    546   1263    150    667   2668    477   264.5  0.473   2001    140  0.000  0.000  0.000  0.000  0.000  0.000  0.000    2.35  63.10   0.75      0   2001  314.6   0.74   0.59    0.0   0.97    0.42    0.42    0.33    0.17    0.10    0.05    0.02    0.00    0.00    0.00      978     131
 2011 158    67    52    9.4      7  0.284     90    532   1304    146    622   2658    477   273.2  0.491   2036    137  0.000  0.000  0.000  0.000  0.000  0.000  0.000    2.23  64.03   0.77      0   2036  316.1   0.74   0.59    0.0   0.97    0.41    0.41    0.32    0.17    0.10    0.05    0.02    0.00    0.00    0.00     1018     135
 2011 159    68    53    9.4      7  0.211     67    521   1333    143    588   2648    477   279.4  0.504   2061    136  0.000  0.000  0.000  0.000  0.000  0.000  0.000    2.11  64.71   0.78      0   2061  317.3   0.74   0.59    0.0   0.97    0.40    0.40    0.32    0.17    0.10    0.05    0.02    0.00    0.00    0.00     1047     138
 2011 160    69    54    9.4      7  0.158     49    513   1352    140    562   2638    477   283.4  0.513   2075    136  0.000  0.000  0.000  0.000  0.000  0.000  0.000    2.04  65.16   0.79      0   2075  318.5   0.74   0.59    0.0   0.99    0.39    0.39    0.31    0.16    0.10    0.05    0.02    0.00    0.00    0.00     1069     141
 2011 161    70    55    9.4      8  0.118     37    506   1362    136    543   2626    477   285.5  0.519   2083    136  0.000  0.000  0.000  0.000  0.000  0.000  0.000    1.99  65.41   0.79      0   2083  319.6   0.74   0.59    0.0   0.99    0.38    0.38    0.30    0.16    0.09    0.05    0.02    0.00    0.00    0.00     1085     144
